<?xml version='1.0' encoding='UTF-8'?>
<additional><poi id="dp_0" x="637311.99" y="30930.89" color="0,1,0" type="delivery" /><poi id="dp_1" x="629099.43" y="13165.03" color="0,1,0" type="delivery" /><poi id="dp_2" x="641879.23" y="19769.2" color="0,1,0" type="delivery" /><poi id="dp_3" x="651634.45" y="14688.48" color="0,1,0" type="delivery" /><poi id="dp_4" x="639690.5" y="20637.43" color="0,1,0" type="delivery" /><poi id="dp_5" x="635609.75" y="16729.72" color="0,1,0" type="delivery" /><poi id="dp_6" x="642993.93" y="25971.95" color="0,1,0" type="delivery" /><poi id="dp_7" x="634755.65" y="25514.3" color="0,1,0" type="delivery" /><poi id="dp_8" x="644087.32" y="21483.35" color="0,1,0" type="delivery" /><poi id="dp_9" x="635317.14" y="20386.59" color="0,1,0" type="delivery" /><poi id="dp_10" x="633341.59" y="25129.53" color="0,1,0" type="delivery" /><poi id="dp_11" x="639879.39" y="26982.21" color="0,1,0" type="delivery" /><poi id="dp_12" x="635243.74" y="28563.38" color="0,1,0" type="delivery" /><poi id="dp_13" x="631182.24" y="20084.86" color="0,1,0" type="delivery" /><poi id="dp_14" x="643452.74" y="28685.93" color="0,1,0" type="delivery" /><poi id="dp_15" x="637282.25" y="15371.97" color="0,1,0" type="delivery" /><poi id="dp_16" x="637708.6" y="16376.32" color="0,1,0" type="delivery" /><poi id="dp_17" x="639929.59" y="35857.09" color="0,1,0" type="delivery" /><poi id="dp_18" x="638248.13" y="21533.73" color="0,1,0" type="delivery" /><poi id="dp_19" x="633734.53" y="23063.95" color="0,1,0" type="delivery" /><poi id="dp_20" x="634500.26" y="24568.47" color="0,1,0" type="delivery" /><poi id="dp_21" x="635443.64" y="16210.02" color="0,1,0" type="delivery" /><poi id="dp_22" x="642417.93" y="28678.45" color="0,1,0" type="delivery" /><poi id="dp_23" x="639366.1" y="18481.55" color="0,1,0" type="delivery" /><poi id="dp_24" x="636974.46" y="25039.75" color="0,1,0" type="delivery" /><poi id="dp_25" x="632614.4" y="31418.62" color="0,1,0" type="delivery" /><poi id="dp_26" x="631368.32" y="20944.6" color="0,1,0" type="delivery" /><poi id="dp_27" x="634836.05" y="19242.74" color="0,1,0" type="delivery" /><poi id="dp_28" x="644908.75" y="26699.53" color="0,1,0" type="delivery" /><poi id="dp_29" x="633346.41" y="24297.31" color="0,1,0" type="delivery" /><poi id="dp_30" x="638818.87" y="24218.77" color="0,1,0" type="delivery" /><poi id="dp_31" x="636513.45" y="20871.64" color="0,1,0" type="delivery" /><poi id="dp_32" x="626719.94" y="14139.43" color="0,1,0" type="delivery" /><poi id="dp_33" x="639069.92" y="21980.23" color="0,1,0" type="delivery" /><poi id="dp_34" x="651139.12" y="14776.26" color="0,1,0" type="delivery" /><poi id="dp_35" x="636782.74" y="12834.45" color="0,1,0" type="delivery" /><poi id="dp_36" x="635107.46" y="33485.69" color="0,1,0" type="delivery" /><poi id="dp_37" x="646679.23" y="25012.41" color="0,1,0" type="delivery" /><poi id="dp_38" x="635512.67" y="20122.46" color="0,1,0" type="delivery" /><poi id="dp_39" x="638121.2" y="16635.99" color="0,1,0" type="delivery" /><poi id="dp_40" x="636469.66" y="33795.63" color="0,1,0" type="delivery" /><poi id="dp_41" x="635089.57" y="19654.74" color="0,1,0" type="delivery" /><poi id="dp_42" x="638232.07" y="24226.32" color="0,1,0" type="delivery" /><poi id="dp_43" x="634834.72" y="19635.34" color="0,1,0" type="delivery" /><poi id="dp_44" x="642125.88" y="19639.14" color="0,1,0" type="delivery" /><poi id="dp_45" x="623512.23" y="18098.18" color="0,1,0" type="delivery" /><poi id="dp_46" x="637694.24" y="29876.84" color="0,1,0" type="delivery" /><poi id="dp_47" x="639990.59" y="35673.84" color="0,1,0" type="delivery" /><poi id="dp_48" x="636495.75" y="21212.16" color="0,1,0" type="delivery" /><poi id="dp_49" x="646301.9" y="25698.73" color="0,1,0" type="delivery" /><poi id="dp_50" x="644805.52" y="31091.82" color="0,1,0" type="delivery" /><poi id="dp_51" x="640254.65" y="34472.48" color="0,1,0" type="delivery" /><poi id="dp_52" x="646104.27" y="10053.77" color="0,1,0" type="delivery" /><poi id="dp_53" x="636708.69" y="27961.78" color="0,1,0" type="delivery" /><poi id="dp_54" x="635961.08" y="31444.82" color="0,1,0" type="delivery" /><poi id="dp_55" x="634377.94" y="25518.34" color="0,1,0" type="delivery" /><poi id="dp_56" x="644769.46" y="14204.92" color="0,1,0" type="delivery" /><poi id="dp_57" x="640222.53" y="35058.76" color="0,1,0" type="delivery" /><poi id="dp_58" x="625424.27" y="24840.55" color="0,1,0" type="delivery" /><poi id="dp_59" x="639212.01" y="33313.92" color="0,1,0" type="delivery" /><poi id="dp_60" x="639842.05" y="26045.55" color="0,1,0" type="delivery" /><poi id="dp_61" x="642633.31" y="25383.32" color="0,1,0" type="delivery" /><poi id="dp_62" x="641779.29" y="13180.28" color="0,1,0" type="delivery" /><poi id="dp_63" x="636855.41" y="14212.97" color="0,1,0" type="delivery" /><poi id="dp_64" x="639834.98" y="26548.63" color="0,1,0" type="delivery" /><poi id="dp_65" x="639068.51" y="35448.85" color="0,1,0" type="delivery" /><poi id="dp_66" x="638954.6" y="14823.67" color="0,1,0" type="delivery" /><poi id="dp_67" x="634301.15" y="34330.32" color="0,1,0" type="delivery" /><poi id="dp_68" x="640842.53" y="24420.02" color="0,1,0" type="delivery" /><poi id="dp_69" x="637344.33" y="10353.42" color="0,1,0" type="delivery" /><poi id="dp_70" x="641156.2" y="26457.07" color="0,1,0" type="delivery" /><poi id="dp_71" x="631139.91" y="20826.56" color="0,1,0" type="delivery" /><poi id="dp_72" x="642013.93" y="29224.89" color="0,1,0" type="delivery" /><poi id="dp_73" x="642344.53" y="26643.41" color="0,1,0" type="delivery" /><poi id="dp_74" x="642338.25" y="20608.25" color="0,1,0" type="delivery" /><poi id="dp_75" x="623304.42" y="21523.9" color="0,1,0" type="delivery" /><poi id="dp_76" x="635022.19" y="35103.61" color="0,1,0" type="delivery" /><poi id="dp_77" x="633940.48" y="22595.85" color="0,1,0" type="delivery" /><poi id="dp_78" x="645288.11" y="19813.55" color="0,1,0" type="delivery" /><poi id="dp_79" x="645054.5" y="19208.49" color="0,1,0" type="delivery" /><poi id="dp_80" x="624590.21" y="16455.48" color="0,1,0" type="delivery" /><poi id="dp_81" x="637538.6" y="18886.04" color="0,1,0" type="delivery" /><poi id="dp_82" x="629976.79" y="14664.2" color="0,1,0" type="delivery" /><poi id="dp_83" x="636349.01" y="23303.24" color="0,1,0" type="delivery" /><poi id="dp_84" x="638100.62" y="26625.69" color="0,1,0" type="delivery" /><poi id="dp_85" x="635100.12" y="20981.85" color="0,1,0" type="delivery" /><poi id="dp_86" x="638973.43" y="17604.92" color="0,1,0" type="delivery" /><poi id="dp_87" x="635760.8" y="31797.4" color="0,1,0" type="delivery" /><poi id="dp_88" x="651776.16" y="14345.17" color="0,1,0" type="delivery" /><poi id="dp_89" x="636291.97" y="23277.86" color="0,1,0" type="delivery" /><poi id="dp_90" x="642781.25" y="21990.91" color="0,1,0" type="delivery" /><poi id="dp_91" x="631474.82" y="16533.98" color="0,1,0" type="delivery" /><poi id="dp_92" x="625521.89" y="17923.94" color="0,1,0" type="delivery" /><poi id="dp_93" x="639750.31" y="36695.59" color="0,1,0" type="delivery" /><poi id="dp_94" x="635667.58" y="14950.94" color="0,1,0" type="delivery" /><poi id="dp_95" x="637200.42" y="26795.82" color="0,1,0" type="delivery" /><poi id="dp_96" x="634788.5" y="16540.96" color="0,1,0" type="delivery" /><poi id="dp_97" x="634866.97" y="35466.78" color="0,1,0" type="delivery" /><poi id="dp_98" x="640813.72" y="18603.6" color="0,1,0" type="delivery" /><poi id="dp_99" x="638065.55" y="33784.07" color="0,1,0" type="delivery" /><poi id="dp_100" x="635362.68" y="34139.66" color="0,1,0" type="delivery" /><poi id="dp_101" x="642527.69" y="20807.13" color="0,1,0" type="delivery" /><poi id="dp_102" x="641836.86" y="24263.12" color="0,1,0" type="delivery" /><poi id="dp_103" x="650110.22" y="5944.48" color="0,1,0" type="delivery" /><poi id="dp_104" x="630779.2" y="19047.6" color="0,1,0" type="delivery" /><poi id="dp_105" x="635597.07" y="15500.15" color="0,1,0" type="delivery" /><poi id="dp_106" x="638861.88" y="26070.03" color="0,1,0" type="delivery" /><poi id="dp_107" x="636554.22" y="16928.3" color="0,1,0" type="delivery" /><poi id="dp_108" x="633937.46" y="17863.34" color="0,1,0" type="delivery" /><poi id="dp_109" x="635293.69" y="23651.09" color="0,1,0" type="delivery" /><poi id="dp_110" x="638852.93" y="34220.83" color="0,1,0" type="delivery" /><poi id="dp_111" x="645924.07" y="4887.06" color="0,1,0" type="delivery" /><poi id="dp_112" x="634105.77" y="19545.5" color="0,1,0" type="delivery" /><poi id="dp_113" x="642602.76" y="19695.64" color="0,1,0" type="delivery" /><poi id="dp_114" x="638675.85" y="21942.08" color="0,1,0" type="delivery" /><poi id="dp_115" x="643221.21" y="28029.87" color="0,1,0" type="delivery" /><poi id="dp_116" x="639174.61" y="9876.11" color="0,1,0" type="delivery" /><poi id="dp_117" x="645018.91" y="18568.26" color="0,1,0" type="delivery" /><poi id="dp_118" x="637576.54" y="30002.33" color="0,1,0" type="delivery" /><poi id="dp_119" x="635633.65" y="34299.56" color="0,1,0" type="delivery" /><poi id="dp_120" x="638971.39" y="32295.73" color="0,1,0" type="delivery" /><poi id="dp_121" x="639065.65" y="33812.85" color="0,1,0" type="delivery" /><poi id="dp_122" x="634952.98" y="25062.79" color="0,1,0" type="delivery" /><poi id="dp_123" x="639599.39" y="33174.63" color="0,1,0" type="delivery" /><poi id="dp_124" x="635077.1" y="34119.0" color="0,1,0" type="delivery" /><poi id="dp_125" x="639078.22" y="17519.7" color="0,1,0" type="delivery" /><poi id="dp_126" x="633422.85" y="21063.89" color="0,1,0" type="delivery" /><poi id="dp_127" x="635003.16" y="16740.54" color="0,1,0" type="delivery" /><poi id="dp_128" x="635210.69" y="19827.79" color="0,1,0" type="delivery" /><poi id="dp_129" x="637702.72" y="20153.39" color="0,1,0" type="delivery" /><poi id="dp_130" x="638363.46" y="35004.31" color="0,1,0" type="delivery" /><poi id="dp_131" x="638575.61" y="16896.96" color="0,1,0" type="delivery" /><poi id="dp_132" x="639891.83" y="24123.05" color="0,1,0" type="delivery" /><poi id="dp_133" x="644467.22" y="29978.56" color="0,1,0" type="delivery" /><poi id="dp_134" x="633714.01" y="23047.85" color="0,1,0" type="delivery" /><poi id="dp_135" x="651584.1" y="12971.25" color="0,1,0" type="delivery" /><poi id="dp_136" x="637313.41" y="27349.73" color="0,1,0" type="delivery" /><poi id="dp_137" x="641217.99" y="15440.16" color="0,1,0" type="delivery" /><poi id="dp_138" x="641773.17" y="28303.78" color="0,1,0" type="delivery" /><poi id="dp_139" x="634790.68" y="22087.04" color="0,1,0" type="delivery" /><poi id="dp_140" x="635018.7" y="21002.62" color="0,1,0" type="delivery" /><poi id="dp_141" x="640087.76" y="23318.56" color="0,1,0" type="delivery" /><poi id="dp_142" x="632066.66" y="20459.06" color="0,1,0" type="delivery" /><poi id="dp_143" x="633442.95" y="14752.29" color="0,1,0" type="delivery" /><poi id="dp_144" x="640372.81" y="25997.18" color="0,1,0" type="delivery" /><poi id="dp_145" x="647026.45" y="7688.2" color="0,1,0" type="delivery" /><poi id="dp_146" x="638402.71" y="18973.69" color="0,1,0" type="delivery" /><poi id="dp_147" x="638818.26" y="14834.67" color="0,1,0" type="delivery" /><poi id="dp_148" x="638485.4" y="27204.65" color="0,1,0" type="delivery" /><poi id="dp_149" x="646374.4" y="24855.53" color="0,1,0" type="delivery" /><poi id="dp_150" x="634467.78" y="21302.38" color="0,1,0" type="delivery" /><poi id="dp_151" x="635159.11" y="25008.47" color="0,1,0" type="delivery" /><poi id="dp_152" x="638873.14" y="24346.62" color="0,1,0" type="delivery" /><poi id="dp_153" x="633513.02" y="25137.32" color="0,1,0" type="delivery" /><poi id="dp_154" x="639165.85" y="32968.61" color="0,1,0" type="delivery" /><poi id="dp_155" x="633759.05" y="20181.36" color="0,1,0" type="delivery" /><poi id="dp_156" x="634547.41" y="17753.37" color="0,1,0" type="delivery" /><poi id="dp_157" x="651976.97" y="15110.02" color="0,1,0" type="delivery" /><poi id="dp_158" x="638923.59" y="11570.85" color="0,1,0" type="delivery" /><poi id="dp_159" x="630842.95" y="19216.99" color="0,1,0" type="delivery" /><poi id="dp_160" x="634847.77" y="35272.44" color="0,1,0" type="delivery" /><poi id="dp_161" x="634664.87" y="12668.3" color="0,1,0" type="delivery" /><poi id="dp_162" x="638150.22" y="24910.42" color="0,1,0" type="delivery" /><poi id="dp_163" x="638396.51" y="33296.63" color="0,1,0" type="delivery" /><poi id="dp_164" x="639357.23" y="13316.77" color="0,1,0" type="delivery" /><poi id="dp_165" x="633256.77" y="23440.03" color="0,1,0" type="delivery" /><poi id="dp_166" x="648681.79" y="17916.38" color="0,1,0" type="delivery" /><poi id="dp_167" x="636678.58" y="34479.75" color="0,1,0" type="delivery" /><poi id="dp_168" x="634008.27" y="23168.46" color="0,1,0" type="delivery" /><poi id="dp_169" x="642633.02" y="15099.06" color="0,1,0" type="delivery" /><poi id="dp_170" x="635776.66" y="28400.09" color="0,1,0" type="delivery" /><poi id="dp_171" x="638028.19" y="25913.45" color="0,1,0" type="delivery" /><poi id="dp_172" x="636634.71" y="13640.99" color="0,1,0" type="delivery" /><poi id="dp_173" x="637702.28" y="15893.62" color="0,1,0" type="delivery" /><poi id="dp_174" x="641885.65" y="18011.96" color="0,1,0" type="delivery" /><poi id="dp_175" x="639143.52" y="21162.52" color="0,1,0" type="delivery" /><poi id="dp_176" x="639770.3" y="18809.26" color="0,1,0" type="delivery" /><poi id="dp_177" x="638422.62" y="26721.18" color="0,1,0" type="delivery" /><poi id="dp_178" x="642627.69" y="20738.87" color="0,1,0" type="delivery" /><poi id="dp_179" x="631065.57" y="10319.0" color="0,1,0" type="delivery" /><poi id="dp_180" x="641080.81" y="21685.73" color="0,1,0" type="delivery" /><poi id="dp_181" x="639327.9" y="27138.35" color="0,1,0" type="delivery" /><poi id="dp_182" x="632108.94" y="20829.65" color="0,1,0" type="delivery" /><poi id="dp_183" x="642015.53" y="12885.45" color="0,1,0" type="delivery" /><poi id="dp_184" x="635184.45" y="17834.81" color="0,1,0" type="delivery" /><poi id="dp_185" x="634728.47" y="31634.18" color="0,1,0" type="delivery" /><poi id="dp_186" x="635040.53" y="26139.81" color="0,1,0" type="delivery" /><poi id="dp_187" x="642947.2" y="20906.14" color="0,1,0" type="delivery" /><poi id="dp_188" x="632855.48" y="21417.11" color="0,1,0" type="delivery" /><poi id="dp_189" x="632338.23" y="31996.71" color="0,1,0" type="delivery" /><poi id="dp_190" x="632930.88" y="22553.4" color="0,1,0" type="delivery" /><poi id="dp_191" x="639044.37" y="36050.55" color="0,1,0" type="delivery" /><poi id="dp_192" x="633898.69" y="18428.85" color="0,1,0" type="delivery" /><poi id="dp_193" x="639223.97" y="13769.64" color="0,1,0" type="delivery" /><poi id="dp_194" x="638570.73" y="33148.75" color="0,1,0" type="delivery" /><poi id="dp_195" x="638562.09" y="32420.93" color="0,1,0" type="delivery" /><poi id="dp_196" x="634258.21" y="30217.58" color="0,1,0" type="delivery" /><poi id="dp_197" x="639403.9" y="33395.17" color="0,1,0" type="delivery" /><poi id="dp_198" x="643088.17" y="10139.56" color="0,1,0" type="delivery" /><poi id="dp_199" x="644991.5" y="23453.71" color="0,1,0" type="delivery" /></additional>