<?xml version="1.0" encoding="UTF-8"?>

<!-- generated on 2025-03-24 23:28:07.382680 by randomTrips.py v1_22_0+0002-63e50f52594
<configuration>
    <net-file value="faridabad.net.xml"/>
    <additional-files value="vdistrib.add.xml"/>
    <output-trip-file value="faridabad.trips.xml"/>
    <vtype-output value="indian"/>
    <period value="0.5"/>
</configuration>
-->

<routes xmlns:xsi="http://www.w3.org/2001/XMLSchema-instance" xsi:noNamespaceSchemaLocation="http://sumo.dlr.de/xsd/routes_file.xsd">
    <trip id="0" depart="0.00" from="1230755169#2" to="-1067894659#1"/>
    <trip id="1" depart="0.50" from="-172671680#14" to="-172515002#5"/>
    <trip id="2" depart="1.00" from="172507717#0" to="172320236#8"/>
    <trip id="3" depart="1.50" from="421756561#19" to="-1069931383#7"/>
    <trip id="4" depart="2.00" from="-421952324#9" to="-1068196013"/>
    <trip id="5" depart="2.50" from="-172384830" to="1068416334#0"/>
    <trip id="6" depart="3.00" from="-1068083729" to="-172383318#1"/>
    <trip id="7" depart="3.50" from="1240919561#1" to="1069546221#1"/>
    <trip id="8" depart="4.00" from="-172387705#4" to="1072996404#0"/>
    <trip id="9" depart="4.50" from="188616221#13" to="-1054727920#0"/>
    <trip id="10" depart="5.00" from="188610210#49" to="172383352#0"/>
    <trip id="11" depart="5.50" from="-403587418" to="-143088590#0"/>
    <trip id="12" depart="6.00" from="423376990#0" to="-421446022#2"/>
    <trip id="13" depart="6.50" from="-1069873931#20" to="-1070555991#3"/>
    <trip id="14" depart="7.00" from="403615142" to="1075309926#1"/>
    <trip id="15" depart="7.50" from="188610282#35" to="172522696#3"/>
    <trip id="16" depart="8.00" from="1068436594#0" to="442865426#4"/>
    <trip id="17" depart="8.50" from="-421730060#4" to="1069816740"/>
    <trip id="18" depart="9.00" from="358617280#0" to="1183671571"/>
    <trip id="19" depart="9.50" from="421435882" to="1070604589"/>
    <trip id="20" depart="10.00" from="172377080#10" to="-1069146352#0"/>
    <trip id="21" depart="10.50" from="-172405716#0" to="-191207450#6"/>
    <trip id="22" depart="11.00" from="-1069561549#3" to="-172523048#4"/>
    <trip id="23" depart="11.50" from="-1070240241#1" to="-188594235#2"/>
    <trip id="24" depart="12.00" from="1164727873#0" to="-421740794#3"/>
    <trip id="25" depart="12.50" from="-421725210" to="-172405715#0"/>
    <trip id="26" depart="13.00" from="-172586590#4" to="422135210#2"/>
    <trip id="27" depart="13.50" from="1240685746" to="1076059471"/>
    <trip id="28" depart="14.00" from="-1311929608#1" to="172518762#1"/>
    <trip id="29" depart="14.50" from="-1242454743" to="-421794873#2"/>
    <trip id="30" depart="15.00" from="686124362" to="1247506780#0"/>
    <trip id="31" depart="15.50" from="1069462172#2" to="172343058#7"/>
    <trip id="32" depart="16.00" from="374518104#7" to="172714233#3"/>
    <trip id="33" depart="16.50" from="-172492390#2" to="-1068387238#2"/>
    <trip id="34" depart="17.00" from="-213169344" to="-172714182#0"/>
    <trip id="35" depart="17.50" from="-172377092#10" to="422788453"/>
    <trip id="36" depart="18.00" from="421725268#7" to="-372578929#3"/>
    <trip id="37" depart="18.50" from="1244012838#0" to="-421951909#2"/>
    <trip id="38" depart="19.00" from="421935738#20" to="-681831106#4"/>
    <trip id="39" depart="19.50" from="-172581687#1" to="-172581676#1"/>
    <trip id="40" depart="20.00" from="1069484095#3" to="-172711504#7"/>
    <trip id="41" depart="20.50" from="1069873931#45" to="421791337#6"/>
    <trip id="42" depart="21.00" from="-421780559#10" to="-172507569#0"/>
    <trip id="43" depart="21.50" from="994112336" to="1068494365#1"/>
    <trip id="44" depart="22.00" from="-1069854884#1" to="-1069151191#2"/>
    <trip id="45" depart="22.50" from="-1070849591" to="1240363566"/>
    <trip id="46" depart="23.00" from="172714260#2" to="-423119120#6"/>
    <trip id="47" depart="23.50" from="-1069468935#0" to="-421796435#3"/>
    <trip id="48" depart="24.00" from="797174761#4" to="1069255119#2"/>
    <trip id="49" depart="24.50" from="442864698#8" to="421460739#1"/>
    <trip id="50" depart="25.00" from="-1061061101" to="172507670#1"/>
    <trip id="51" depart="25.50" from="144134142" to="1069494029#4"/>
    <trip id="52" depart="26.00" from="-172584918#0" to="1247987390#2"/>
    <trip id="53" depart="26.50" from="-1071458388#2" to="-423577760#5"/>
    <trip id="54" depart="27.00" from="-423270625#10" to="423352406"/>
    <trip id="55" depart="27.50" from="421725252#3" to="-172711579"/>
    <trip id="56" depart="28.00" from="1049903746#1" to="-172320200#1"/>
    <trip id="57" depart="28.50" from="421800626#3" to="421729878#5"/>
    <trip id="58" depart="29.00" from="-188600264#3" to="1243968691#1"/>
    <trip id="59" depart="29.50" from="1072977472#1" to="-1307230727"/>
    <trip id="60" depart="30.00" from="172579320" to="1069501130#2"/>
    <trip id="61" depart="30.50" from="172671756#1" to="1069464324#6"/>
    <trip id="62" depart="31.00" from="-1046133808" to="-421253557#8"/>
    <trip id="63" depart="31.50" from="-1067463945#2" to="422015121#0"/>
    <trip id="64" depart="32.00" from="421729207#14" to="380059256#0"/>
    <trip id="65" depart="32.50" from="-188616955#24" to="-1069465717#0"/>
    <trip id="66" depart="33.00" from="421726435#1" to="423119120#12"/>
    <trip id="67" depart="33.50" from="-1069821787" to="1067130212"/>
    <trip id="68" depart="34.00" from="-1069491646#0" to="172671489#9"/>
    <trip id="69" depart="34.50" from="172581716#1" to="-1083444358#0"/>
    <trip id="70" depart="35.00" from="-442865415#15" to="1069580213"/>
    <trip id="71" depart="35.50" from="-172581712#0" to="421730037#2"/>
    <trip id="72" depart="36.00" from="-421971404#0" to="-172497994#7"/>
    <trip id="73" depart="36.50" from="1068498632#0" to="172522699#4"/>
    <trip id="74" depart="37.00" from="-172330917#0" to="-358626923#3"/>
    <trip id="75" depart="37.50" from="775998016#2" to="1342407383#3"/>
    <trip id="76" depart="38.00" from="-422133571#1" to="1069148015#13"/>
    <trip id="77" depart="38.50" from="-1073020570#4" to="-172515123#3"/>
    <trip id="78" depart="39.00" from="-374518175#3" to="1072531071#0"/>
    <trip id="79" depart="39.50" from="-172497994#6" to="-172507633#1"/>
    <trip id="80" depart="40.00" from="-1069498054#4" to="1240698010#0"/>
    <trip id="81" depart="40.50" from="-172492386#0" to="421800623#1"/>
    <trip id="82" depart="41.00" from="421430119#1" to="-1069541233#6"/>
    <trip id="83" depart="41.50" from="-172507613#1" to="164460760#45"/>
    <trip id="84" depart="42.00" from="-172377527#0" to="-1196691377#0"/>
    <trip id="85" depart="42.50" from="422131104#11" to="1070274193#5"/>
    <trip id="86" depart="43.00" from="-442864684#1" to="188594984#0"/>
    <trip id="87" depart="43.50" from="188610282#77" to="-172348309#18"/>
    <trip id="88" depart="44.00" from="-1070118167#5" to="-423385251#1"/>
    <trip id="89" depart="44.50" from="-421971429#0" to="1046138415"/>
    <trip id="90" depart="45.00" from="172498267#0" to="172314800#0"/>
    <trip id="91" depart="45.50" from="560529333#0" to="-1070613960#2"/>
    <trip id="92" depart="46.00" from="-421791337#3" to="-421446880#6"/>
    <trip id="93" depart="46.50" from="421435873" to="-172584917#3"/>
    <trip id="94" depart="47.00" from="-144134185" to="-443223089#5"/>
    <trip id="95" depart="47.50" from="-421952324#4" to="-188594967#0"/>
    <trip id="96" depart="48.00" from="-172522984#1" to="421986000#2"/>
    <trip id="97" depart="48.50" from="-422160601" to="421460758#0"/>
    <trip id="98" depart="49.00" from="1069185230" to="-1069181776#6"/>
    <trip id="99" depart="49.50" from="994113864#1" to="421240738#0"/>
    <trip id="100" depart="50.00" from="442864299#5" to="422013333#5"/>
    <trip id="101" depart="50.50" from="421222965" to="-143754254#1"/>
    <trip id="102" depart="51.00" from="-560510796#7" to="-172498114#0"/>
    <trip id="103" depart="51.50" from="-421781444" to="-1069471839#7"/>
    <trip id="104" depart="52.00" from="-421732724#7" to="588384816#0"/>
    <trip id="105" depart="52.50" from="-172581718#5" to="188594241#2"/>
    <trip id="106" depart="53.00" from="-423281377#5" to="-423127454#1"/>
    <trip id="107" depart="53.50" from="423376997#0" to="776307712#2"/>
    <trip id="108" depart="54.00" from="1069238278#0" to="172507535#1"/>
    <trip id="109" depart="54.50" from="-1240394148#2" to="-213169335#11"/>
    <trip id="110" depart="55.00" from="442825810#3" to="1071441254"/>
    <trip id="111" depart="55.50" from="1069130123#0" to="172579306#10"/>
    <trip id="112" depart="56.00" from="-1069206286#0" to="1072191768#2"/>
    <trip id="113" depart="56.50" from="1054720853#1" to="421446047#0"/>
    <trip id="114" depart="57.00" from="-1240709454#0" to="423557695#1"/>
    <trip id="115" depart="57.50" from="-1069564662#4" to="-172338223#0"/>
    <trip id="116" depart="58.00" from="1070494819#3" to="172320152#1"/>
    <trip id="117" depart="58.50" from="-172498324#3" to="-1075341500#1"/>
    <trip id="118" depart="59.00" from="421738565#1" to="-172581608#10"/>
    <trip id="119" depart="59.50" from="1070487440#0" to="1191371736"/>
    <trip id="120" depart="60.00" from="-421948003#1" to="1071956621"/>
    <trip id="121" depart="60.50" from="1067843105" to="422134453"/>
    <trip id="122" depart="61.00" from="-172338212#0" to="172498323#2"/>
    <trip id="123" depart="61.50" from="-172507642#0" to="-421951918#2"/>
    <trip id="124" depart="62.00" from="143353829#14" to="-213169528#3"/>
    <trip id="125" depart="62.50" from="-213169410" to="172582574"/>
    <trip id="126" depart="63.00" from="-1069506283#2" to="-610665204#6"/>
    <trip id="127" depart="63.50" from="994113322" to="797455522#2"/>
    <trip id="128" depart="64.00" from="-1069506698" to="-172498045"/>
    <trip id="129" depart="64.50" from="-172581718#4" to="422133556#1"/>
    <trip id="130" depart="65.00" from="421729901" to="421738112"/>
    <trip id="131" depart="65.50" from="-421466401#4" to="-143183266#2"/>
    <trip id="132" depart="66.00" from="358621565" to="172393047#0"/>
    <trip id="133" depart="66.50" from="1073874845#1" to="610660584#1"/>
    <trip id="134" depart="67.00" from="1242438419" to="-1061025726#1"/>
    <trip id="135" depart="67.50" from="213169330#7" to="-213169504#1"/>
    <trip id="136" depart="68.00" from="1312215596#0" to="422160614#0"/>
    <trip id="137" depart="68.50" from="-1075651270#0" to="-1074547201#0"/>
    <trip id="138" depart="69.00" from="-1070541402#0" to="1069821867#4"/>
    <trip id="139" depart="69.50" from="-172659443#1" to="1075638626"/>
    <trip id="140" depart="70.00" from="172393047#1" to="-172390011#4"/>
    <trip id="141" depart="70.50" from="1112215825#2" to="-172711598#1"/>
    <trip id="142" depart="71.00" from="-610660574#1" to="421800621#1"/>
    <trip id="143" depart="71.50" from="403511234#0" to="-1070253370"/>
    <trip id="144" depart="72.00" from="-421971429#0" to="-188594094#0"/>
    <trip id="145" depart="72.50" from="-1049905477#0" to="172711684#8"/>
    <trip id="146" depart="73.00" from="1187747653#7" to="-172711490#32"/>
    <trip id="147" depart="73.50" from="172518620" to="1069815786#11"/>
    <trip id="148" depart="74.00" from="-421985994#0" to="-1061041959#0"/>
    <trip id="149" depart="74.50" from="-1069519633#2" to="421740791#4"/>
    <trip id="150" depart="75.00" from="421781434" to="1069548606#0"/>
    <trip id="151" depart="75.50" from="358621639#1" to="1071873994#0"/>
    <trip id="152" depart="76.00" from="-1228477588#1" to="-1076570396#1"/>
    <trip id="153" depart="76.50" from="-191210126#1" to="421794839"/>
    <trip id="154" depart="77.00" from="188594032#1" to="421460736#0"/>
    <trip id="155" depart="77.50" from="421768210" to="-172492354#1"/>
    <trip id="156" depart="78.00" from="-172522957#1" to="-1071882487#0"/>
    <trip id="157" depart="78.50" from="172671849#2" to="421756592#0"/>
    <trip id="158" depart="79.00" from="-421796429#7" to="1216710354"/>
    <trip id="159" depart="79.50" from="-1240388942#3" to="422131082"/>
    <trip id="160" depart="80.00" from="421446805#1" to="443222611#1"/>
    <trip id="161" depart="80.50" from="191213544#2" to="421738550"/>
    <trip id="162" depart="81.00" from="-1067858948#7" to="172538740#5"/>
    <trip id="163" depart="81.50" from="-358626950#53" to="422131145#0"/>
    <trip id="164" depart="82.00" from="188603101#6" to="421466401#1"/>
    <trip id="165" depart="82.50" from="191213544#0" to="-172714177#8"/>
    <trip id="166" depart="83.00" from="172714180#42" to="-1073006563#0"/>
    <trip id="167" depart="83.50" from="421460767#2" to="421452313#6"/>
    <trip id="168" depart="84.00" from="-172390063#2" to="358617328#0"/>
    <trip id="169" depart="84.50" from="-423385195" to="-358617222#0"/>
    <trip id="170" depart="85.00" from="176333820#1" to="-172518740#0"/>
    <trip id="171" depart="85.50" from="-1067815690#12" to="-172377213#0"/>
    <trip id="172" depart="86.00" from="-358621544#2" to="421725189#15"/>
    <trip id="173" depart="86.50" from="425427972#17" to="-188600088#2"/>
    <trip id="174" depart="87.00" from="1239843691#1" to="-421982688#0"/>
    <trip id="175" depart="87.50" from="546960728#5" to="1069490418#0"/>
    <trip id="176" depart="88.00" from="422134428#9" to="-1074501703"/>
    <trip id="177" depart="88.50" from="442864691#8" to="-172320198#1"/>
    <trip id="178" depart="89.00" from="423557735" to="-172711685#0"/>
    <trip id="179" depart="89.50" from="-1070593055" to="-423577712#0"/>
    <trip id="180" depart="90.00" from="172498234#0" to="-358626954#18"/>
    <trip id="181" depart="90.50" from="1072211457" to="1069125840"/>
    <trip id="182" depart="91.00" from="-421738180#0" to="1070593057#2"/>
    <trip id="183" depart="91.50" from="-172573266#0" to="172405714#1"/>
    <trip id="184" depart="92.00" from="-1049897258#0" to="421990768#0"/>
    <trip id="185" depart="92.50" from="1068478116#0" to="172507616#1"/>
    <trip id="186" depart="93.00" from="172518704#0" to="164460783#48"/>
    <trip id="187" depart="93.50" from="-421452318#10" to="-1069529948#0"/>
    <trip id="188" depart="94.00" from="1313718239-AddedOffRampEdge" to="-421284159#5"/>
    <trip id="189" depart="94.50" from="-213101639#0" to="421428919#5"/>
    <trip id="190" depart="95.00" from="172396572#1" to="-213169553#4"/>
    <trip id="191" depart="95.50" from="-213101414#5" to="-422131144#1"/>
    <trip id="192" depart="96.00" from="-421781513#0" to="-213101652#0"/>
    <trip id="193" depart="96.50" from="-1074408848#1" to="-423072571#0"/>
    <trip id="194" depart="97.00" from="422134513#3" to="172320275#2"/>
    <trip id="195" depart="97.50" from="421780573#16" to="1107738546#2"/>
    <trip id="196" depart="98.00" from="-188605036#0" to="1069566766"/>
    <trip id="197" depart="98.50" from="-1046133757" to="-188610282#61"/>
    <trip id="198" depart="99.00" from="-421990762#0" to="1071502698#1"/>
    <trip id="199" depart="99.50" from="1242755127#3" to="-994113848"/>
    <trip id="200" depart="100.00" from="-422144325#4" to="-172498111#0"/>
    <trip id="201" depart="100.50" from="-442864687#44" to="421796411#0"/>
    <trip id="202" depart="101.00" from="188594031#18" to="-144119854#0"/>
    <trip id="203" depart="101.50" from="-1069818214#6" to="1069140155#0"/>
    <trip id="204" depart="102.00" from="1094054423#0" to="-421435907#2"/>
    <trip id="205" depart="102.50" from="213169417" to="172581679#0"/>
    <trip id="206" depart="103.00" from="143683352" to="-172515115#2"/>
    <trip id="207" depart="103.50" from="-172320307#1" to="-1067874990#0"/>
    <trip id="208" depart="104.00" from="-172518700#0" to="1061025747"/>
    <trip id="209" depart="104.50" from="421247093" to="-1069560079#13"/>
    <trip id="210" depart="105.00" from="-421941153" to="1240667879#0"/>
    <trip id="211" depart="105.50" from="-170671625#3" to="172380079#5"/>
    <trip id="212" depart="106.00" from="-776907032#1" to="-172579316"/>
    <trip id="213" depart="106.50" from="1245426643" to="-1054723861#0"/>
    <trip id="214" depart="107.00" from="172538742#1" to="172711623#0"/>
    <trip id="215" depart="107.50" from="-1070521373#1" to="-423281356#15"/>
    <trip id="216" depart="108.00" from="-143212961#2" to="423396459#1"/>
    <trip id="217" depart="108.50" from="1067465804#0" to="-1069180202"/>
    <trip id="218" depart="109.00" from="-172522943#1" to="421431569"/>
    <trip id="219" depart="109.50" from="-423300756#0" to="213101589#29"/>
    <trip id="220" depart="110.00" from="143183265#4" to="610660602#4"/>
    <trip id="221" depart="110.50" from="1070509089#1" to="423270635#4"/>
    <trip id="222" depart="111.00" from="421740788#15" to="1076553235#0"/>
    <trip id="223" depart="111.50" from="172396542#5" to="1068406558#2"/>
    <trip id="224" depart="112.00" from="358617348#2" to="1069566760#0"/>
    <trip id="225" depart="112.50" from="421760890#0" to="172573719#8"/>
    <trip id="226" depart="113.00" from="-442864990#1" to="-172671799#0"/>
    <trip id="227" depart="113.50" from="-172522701#14" to="1242438419"/>
    <trip id="228" depart="114.00" from="172581714#1" to="1069179168#0"/>
    <trip id="229" depart="114.50" from="1075964196" to="-172773272#0"/>
    <trip id="230" depart="115.00" from="-1069546317#2" to="-188610212#12"/>
    <trip id="231" depart="115.50" from="-172656792" to="-380979078#8"/>
    <trip id="232" depart="116.00" from="1069123548#1" to="-1240352284#2"/>
    <trip id="233" depart="116.50" from="-172498016" to="172377486#1"/>
    <trip id="234" depart="117.00" from="172377330#1" to="-1069494041"/>
    <trip id="235" depart="117.50" from="-421799063#2" to="1069518513#4"/>
    <trip id="236" depart="118.00" from="-421941203#1" to="-172399574#0"/>
    <trip id="237" depart="118.50" from="-421951774#0" to="421800602#1"/>
    <trip id="238" depart="119.00" from="1069867767#1" to="172380033"/>
    <trip id="239" depart="119.50" from="421282140#5" to="172671840"/>
    <trip id="240" depart="120.00" from="-421732829#1" to="-1054725945#3"/>
    <trip id="241" depart="120.50" from="-421286596" to="172584912#3"/>
    <trip id="242" depart="121.00" from="421264286" to="423300832#1"/>
    <trip id="243" depart="121.50" from="-421946991#5" to="172574044#1"/>
    <trip id="244" depart="122.00" from="1069148015#0" to="1075288387#10"/>
    <trip id="245" depart="122.50" from="-172387710#0" to="-172507578#1"/>
    <trip id="246" depart="123.00" from="-422131172#0" to="-1068190899#1"/>
    <trip id="247" depart="123.50" from="-374518101#4" to="172330782#2"/>
    <trip id="248" depart="124.00" from="-421794873#0" to="-143754145"/>
    <trip id="249" depart="124.50" from="-423618554" to="-1076579121#1"/>
    <trip id="250" depart="125.00" from="1075305216#0" to="-1068114491#1"/>
    <trip id="251" depart="125.50" from="-421760881#2" to="1070118068#18"/>
    <trip id="252" depart="126.00" from="-1068088505#2" to="1282749881"/>
    <trip id="253" depart="126.50" from="-1075954370#0" to="-774981037#0"/>
    <trip id="254" depart="127.00" from="-1069148015#20" to="-421794860#0"/>
    <trip id="255" depart="127.50" from="-172377210" to="-421264285#15"/>
    <trip id="256" depart="128.00" from="172574008#1" to="-421794861#1"/>
    <trip id="257" depart="128.50" from="172544907#1" to="380059271#2"/>
    <trip id="258" depart="129.00" from="-172538670#0" to="-1069841277#1"/>
    <trip id="259" depart="129.50" from="-1067460833" to="1069502267#1"/>
    <trip id="260" depart="130.00" from="994124683#1" to="-421726373#0"/>
    <trip id="261" depart="130.50" from="1240930868" to="188594021#1"/>
    <trip id="262" depart="131.00" from="1240993445#4" to="172586630#4"/>
    <trip id="263" depart="131.50" from="423110035#5" to="-172383346#0"/>
    <trip id="264" depart="132.00" from="-1067544692#4" to="-1306486393#1"/>
    <trip id="265" depart="132.50" from="-1074176145#5" to="164460775#10"/>
    <trip id="266" depart="133.00" from="1069494044#1" to="-172507453#13"/>
    <trip id="267" depart="133.50" from="172343118#1" to="172671883#5"/>
    <trip id="268" depart="134.00" from="-1283184719#0" to="1075954625"/>
    <trip id="269" depart="134.50" from="172523033#0" to="-1074458090"/>
    <trip id="270" depart="135.00" from="213169447#5" to="423626006#1"/>
    <trip id="271" depart="135.50" from="-1070587401#2" to="-1068090249#1"/>
    <trip id="272" depart="136.00" from="-213101582#23" to="172320276"/>
    <trip id="273" depart="136.50" from="423378884#6" to="-421953518#4"/>
    <trip id="274" depart="137.00" from="172387715#0" to="-1069587479#3"/>
    <trip id="275" depart="137.50" from="172320235#2" to="1240360025#1"/>
    <trip id="276" depart="138.00" from="-1070250235#0" to="172714177#9"/>
    <trip id="277" depart="138.50" from="421253542#0" to="1075014539#1"/>
    <trip id="278" depart="139.00" from="-1073029656#0" to="560529327#1"/>
    <trip id="279" depart="139.50" from="172711503#10" to="-421466395#2"/>
    <trip id="280" depart="140.00" from="-421986020#6" to="-421766267#4"/>
    <trip id="281" depart="140.50" from="1060493448#18" to="-421452259#7"/>
    <trip id="282" depart="141.00" from="421240747#5" to="358626921#39"/>
    <trip id="283" depart="141.50" from="-1070500223#1" to="423557695#2"/>
    <trip id="284" depart="142.00" from="1162782068#4" to="374428649"/>
    <trip id="285" depart="142.50" from="172377442#0" to="-423608010"/>
    <trip id="286" depart="143.00" from="172507617#2" to="425427908"/>
    <trip id="287" depart="143.50" from="-172656679#1" to="234857922#10"/>
    <trip id="288" depart="144.00" from="1068463855#2" to="1067059588#3"/>
    <trip id="289" depart="144.50" from="-422131158#4" to="172522801"/>
    <trip id="290" depart="145.00" from="-172589112" to="421445672#2"/>
    <trip id="291" depart="145.50" from="358617360#2" to="-1069923286#0"/>
    <trip id="292" depart="146.00" from="421730000#0" to="-172579308#6"/>
    <trip id="293" depart="146.50" from="-423557705" to="1076281448#1"/>
    <trip id="294" depart="147.00" from="-421732725#1" to="-1068183516#5"/>
    <trip id="295" depart="147.50" from="421256311#0" to="-172330832"/>
    <trip id="296" depart="148.00" from="-172377258#8" to="213101434#16"/>
    <trip id="297" depart="148.50" from="-403587424#13" to="421738206#3"/>
    <trip id="298" depart="149.00" from="172343200#7" to="-188594048"/>
    <trip id="299" depart="149.50" from="-1061041939#0" to="423127448#1"/>
    <trip id="300" depart="150.00" from="-1069821784#0" to="172507644#2"/>
    <trip id="301" depart="150.50" from="-610660574#13" to="172656737#2"/>
    <trip id="302" depart="151.00" from="172320235#1" to="1307178906#0"/>
    <trip id="303" depart="151.50" from="-681831103#0" to="188610282#49"/>
    <trip id="304" depart="152.00" from="-1069873942#1" to="-172507681#1"/>
    <trip id="305" depart="152.50" from="172320292#0" to="-358617296#1"/>
    <trip id="306" depart="153.00" from="1069841273#0" to="1054728983#0"/>
    <trip id="307" depart="153.50" from="1068382551#5" to="-423281365"/>
    <trip id="308" depart="154.00" from="172522866#2" to="-421285544#0"/>
    <trip id="309" depart="154.50" from="172348310#1" to="-172714248#1"/>
    <trip id="310" depart="155.00" from="-172529296" to="-1075367343"/>
    <trip id="311" depart="155.50" from="-164460783#25" to="-1075335408"/>
    <trip id="312" depart="156.00" from="1068431581#11" to="172671663#0"/>
    <trip id="313" depart="156.50" from="-143947179#0" to="-172498304#2"/>
    <trip id="314" depart="157.00" from="-546961897#1" to="172515045#1"/>
    <trip id="315" depart="157.50" from="443222614#2" to="1069206288#1"/>
    <trip id="316" depart="158.00" from="-172711652#2" to="-1071502941#1"/>
    <trip id="317" depart="158.50" from="-164460829#20" to="-172518736#0"/>
    <trip id="318" depart="159.00" from="-143390901#2" to="-1067054699#8"/>
    <trip id="319" depart="159.50" from="1068402601#2" to="-172773236"/>
    <trip id="320" depart="160.00" from="443015388#0" to="1069821878#2"/>
    <trip id="321" depart="160.50" from="172338198#0" to="-1076495750#3"/>
    <trip id="322" depart="161.00" from="421452281#0" to="1067815690#10"/>
    <trip id="323" depart="161.50" from="421466348#0" to="1070515959#10"/>
    <trip id="324" depart="162.00" from="-425427948#0" to="-442864301#12"/>
    <trip id="325" depart="162.50" from="-143802921#2" to="-1069193918#0"/>
    <trip id="326" depart="163.00" from="422134529#6" to="1061053799#2"/>
    <trip id="327" depart="163.50" from="234858299#1" to="-421985952"/>
    <trip id="328" depart="164.00" from="-1069510164#0" to="1240661651"/>
    <trip id="329" depart="164.50" from="-1069178771" to="-1247605305"/>
    <trip id="330" depart="165.00" from="1069488297#1" to="-358617176#26"/>
    <trip id="331" depart="165.50" from="762656878#1" to="-1075264050#2"/>
    <trip id="332" depart="166.00" from="172579429#2" to="1075941568#1"/>
    <trip id="333" depart="166.50" from="172714247#20" to="-172518614#6"/>
    <trip id="334" depart="167.00" from="1067839035#0" to="-44831427#0"/>
    <trip id="335" depart="167.50" from="-422160581#5" to="421460718"/>
    <trip id="336" depart="168.00" from="705443881#33" to="-358617242"/>
    <trip id="337" depart="168.50" from="1075259956#1" to="1076247177#3"/>
    <trip id="338" depart="169.00" from="172515141#2" to="423127423#0"/>
    <trip id="339" depart="169.50" from="-172343200#1" to="-172492401#3"/>
    <trip id="340" depart="170.00" from="1305937710#3" to="-143095674#6"/>
    <trip id="341" depart="170.50" from="-143095608#18" to="-1069576356#0"/>
    <trip id="342" depart="171.00" from="-1049903741#0" to="-44831424#9"/>
    <trip id="343" depart="171.50" from="1070277212#0" to="-213101426#3"/>
    <trip id="344" depart="172.00" from="-172498048" to="172399598#2"/>
    <trip id="345" depart="172.50" from="172348317#0" to="-560529322#1"/>
    <trip id="346" depart="173.00" from="172314800#6" to="421986023#2"/>
    <trip id="347" depart="173.50" from="172714182#12" to="1240127338#1"/>
    <trip id="348" depart="174.00" from="1306486393#0" to="422133571#1"/>
    <trip id="349" depart="174.50" from="-421982635" to="1069543649#1"/>
    <trip id="350" depart="175.00" from="1240678337#1" to="421939348"/>
    <trip id="351" depart="175.50" from="358614424#0" to="-1069546218#0"/>
    <trip id="352" depart="176.00" from="-1247606157" to="-358617391#2"/>
    <trip id="353" depart="176.50" from="172529320#2" to="1070242085#0"/>
    <trip id="354" depart="177.00" from="-172714242#5" to="-1076247176#2"/>
    <trip id="355" depart="177.50" from="172314885#3" to="172384908#2"/>
    <trip id="356" depart="178.00" from="422155859#2" to="1068224218#1"/>
    <trip id="357" depart="178.50" from="-774981039" to="-1069828941"/>
    <trip id="358" depart="179.00" from="-1068441942" to="-423396485#0"/>
    <trip id="359" depart="179.50" from="-358614427#1" to="-172589122#1"/>
    <trip id="360" depart="180.00" from="-1069858654#3" to="423577728#1"/>
    <trip id="361" depart="180.50" from="358626921#34" to="1070554451#0"/>
    <trip id="362" depart="181.00" from="423127423#0" to="994114393#1"/>
    <trip id="363" depart="181.50" from="143390901#6" to="-172714225#15"/>
    <trip id="364" depart="182.00" from="-1068453477#1" to="172592351#6"/>
    <trip id="365" depart="182.50" from="-442823393#32" to="143095616#3"/>
    <trip id="366" depart="183.00" from="421941132#10" to="-172330784#4"/>
    <trip id="367" depart="183.50" from="1069895389#1" to="1240993445#3"/>
    <trip id="368" depart="184.00" from="-716608418#2" to="-1070240234"/>
    <trip id="369" depart="184.50" from="-421264366#3" to="-421434497#0"/>
    <trip id="370" depart="185.00" from="143213079#19" to="421452283#0"/>
    <trip id="371" depart="185.50" from="-358621675#12" to="172377463#0"/>
    <trip id="372" depart="186.00" from="-172714231#42" to="423091932"/>
    <trip id="373" depart="186.50" from="213101520#10" to="1069582654#0"/>
    <trip id="374" depart="187.00" from="-423281367" to="-372578921#2"/>
    <trip id="375" depart="187.50" from="-358617183#12" to="442864694#11"/>
    <trip id="376" depart="188.00" from="-421794866" to="1069136668#1"/>
    <trip id="377" depart="188.50" from="610660603#2" to="143605483#1-AddedOffRampEdge"/>
    <trip id="378" depart="189.00" from="1069131837#4" to="-422134534#1"/>
    <trip id="379" depart="189.50" from="-144119665#6" to="-421738192#0"/>
    <trip id="380" depart="190.00" from="172573568" to="1240140840#3"/>
    <trip id="381" depart="190.50" from="172573879#2" to="-172390011#0"/>
    <trip id="382" depart="191.00" from="1069178768#1" to="422015002"/>
    <trip id="383" depart="191.50" from="-422133571#3" to="172383356#2"/>
    <trip id="384" depart="192.00" from="-1073044420" to="442865427#2"/>
    <trip id="385" depart="192.50" from="1072936412#1" to="-172573608#0"/>
    <trip id="386" depart="193.00" from="-1240930548#0" to="1069813401"/>
    <trip id="387" depart="193.50" from="1069203948#5" to="-1070274193#4"/>
    <trip id="388" depart="194.00" from="717515348#2" to="421945816#0"/>
    <trip id="389" depart="194.50" from="-423396417" to="-1075074591"/>
    <trip id="390" depart="195.00" from="358617411#1" to="1068191274#1"/>
    <trip id="391" depart="195.50" from="172390025#0" to="1068479675#1"/>
    <trip id="392" depart="196.00" from="-172671493#1" to="409589959#0"/>
    <trip id="393" depart="196.50" from="546777473#1" to="-172579299#7"/>
    <trip id="394" depart="197.00" from="1069199307#3" to="-421800528#4"/>
    <trip id="395" depart="197.50" from="421951258#3" to="1068454473#5"/>