<routes>
    <route id="global_route" edges="-1069241671#0 -1069241669#0 -423626016#5 -423626016#4 -423626016#3 -143274522#27 -143274522#26 -143274522#25 -143274522#24 -143274522#23 -143274522#22 -143274522#21 -143274522#20 -143274522#19 -143274522#17 -143274522#15 -143274522#13 -143274522#12 -143274522#11 -143274522#10 -143274522#9 -143274522#8 -143274522#7 -143274522#6 -143274522#5 172507449#0 172507449#1 172507449#2 172507449#3 172507449#4 172507449#6 -172507687#4 172507687#4 172507449#7 172507449#8 -172507642#2 -172507538#1 -172507538#0 -172507448#0 -172507449#4 -172507449#3 -172507449#2 -172507449#1 -172507449#0 143274522#5 143274522#6 143274522#7 143274522#8 143274522#9 143274522#10 -143213079#20 -143213079#19 -143213079#18 -143213079#17 -143213079#16 -143213079#15 423618566#0 423618566#1 423618566#2 423618566#4 421939331#1 421939331#2 -421939341#2 -421939341#0 -421448384#15 421448384#15 421448384#17 421448384#18 421448384#19 421448384#20 421448384#22 421448384#23 421448384#24 -1069469066#3 -1069469066#2 -1069469066#1 -1069469066#0 -44831424#39 -44831424#38 -44831424#37 -44831424#36 -44831424#35 -44831424#34 -44831424#32 -44831424#31 -44831424#30 -44831424#29 1216738488#0 1216738488#1 421454242#1 421956957#0 421956957#1 421956957#2 421956957#3 1071877829 421939325#7 421939325#8 421939325#10 -421939325#0 -421956957#1 -421956957#0 -421454242#1 -1216738488#1 -1216738488#0 44831424#29 44831424#30 44831424#31 44831424#32 44831424#34 44831424#35 44831424#36 44831424#37 44831424#38 44831424#39 44831424#40 1069469066#1 1069469066#2 1069469066#3 1069469066#4 1069469066#5 1069469066#6 1069469066#8 1069469066#9 1069469066#10 1069469066#11 1069469066#12 -143274522#46 -143274522#45 421948829#0 421948829#1 421948829#2 1068399463#1 1068399463#2 1068444608#0 1068444608#1 1068431581#11 1068431581#12 1068431581#13 1068431581#14 -1068453479#4 -1068453479#2 -1068453479#1 -1068453479#0 1068453479#0 1068453479#1 1068453479#2 1068453480 443224516#0 443224516#1 443224516#2 443224516#3 443224516#4 1069489742#1 1069489735#1 -164460809#19 610660564#0 610660564#1 610660564#2 610660564#3 610660564#4 610660564#5 610660564#6 610660564#7 423539934 423539955#1 423539955#2 1069506695 -1069506695 1069151199#4 -423539955#1 -423539934 -610660564#7 -610660564#6 -610660564#5 -610660564#4 -610660564#3 -610660564#2 -610660564#1 -610660564#0 164460809#19 164460809#20 1069475646#1 1069475646#2 1069475646#3 1069475646#4 1069475646#5 1069475646#6 1069475646#7 1069475646#8 1069475646#9 1069475646#10 1069475646#12 1069475646#13 -421445672#9 421445672#9 1069475646#14 1069551326 358621586#1 358621642#1 425427939 358621593#8 358621593#9 358621593#10 358621593#11 358621593#1 358621643#0 1072175347 425427962#0 425427962#1 -425427947#2 -425427920 -409589959#0 -425427962#0 -1072175347 358621643#1 358621643#2 358621643#3 1072164559 -358621599#2 -358621599#1 358621536#7 -1068399463#3 -1068399463#2 -1068399463#1 -1068431580#6 -1068431580#5 -1068431580#4 -1068431580#3 -1068431580#2 -1068431580#1 -1068431580#0 443224530#0 443224530#1 443224530#2 443224530#4 443224530#5 443224530#6 443224530#8 443224530#9 -443224529#9 -443224529#8 -443224529#7 -1068220044#2 -1068220044#1 1068220046#0 1068220046#1 -443224529#3 -443224529#2 -443224529#0 443224526#18 443224526#19 443224526#20 443224526#21 443224526#22 443224526#23 1068195358#16 1068195358#18 1068195358#20 1068195358#21 1068195358#22 1068195358#23 1068195358#24 164460829#1 164460829#2 164460829#3 164460829#5 164460829#7 164460829#8 164460829#9 164460829#10 164460829#11 164460829#12 164460829#13 1067865224#0 1067865224#1 1067865224#2 1067865224#3 1067865224#4 1067865224#5 1067865224#6 1067865224#7 1067865224#8 1067865224#9 1067865224#10 1067865224#11 1067865224#13 1067865224#14 1067865224#15 1067865224#16 -610665204#9 -610665204#8 -610665204#7 -610665204#6 -610665204#5 -610665204#4 -610665204#3 -610665204#2 -610665204#1 -610665204#0 -610660571#21 -610660571#20 -610660571#19 -610660571#18 -610660571#17 -610660571#15 -610660571#14 1068197599#1 1068197599#2 1068197599#3 -1068197598#1 -1068197598#0 -610660571#5 -610660571#4 -610660571#3 -610660571#1 -610665206#2 -610665206#1 -610665206#0 -610660574#46 610660574#46 610665206#0 610665206#1 610665206#2 610660571#1 610660571#3 610660571#4 610660571#5 610660571#7 610660571#8 610660571#9 610660571#10 610660571#11 610660571#12 610660571#13 610660571#14 610660571#15 610660571#17 610660571#18 610660571#19 610660571#20 610660571#21 610660571#22 610665204#1 610665204#2 610665204#3 610665204#4 610665204#5 610665204#6 610665204#7 610665204#8 610665204#9 610665204#10 610665204#12 610665204#14 610665204#15 610665204#16 610665204#17 610665204#18 610665204#19 610665204#20 610665204#21 610665204#22 -610665204#22 -1068406554 -443015388#11 -443015388#9 -443015388#7 -443015388#5 -443015388#3 1068397035#0 1068397035#1 443015390#3 443015392#0 443015392#1 443015392#2 610660560#1 610660560#2 610660560#3 610660559#0 610660559#1 610660558#0 610660558#1 610660558#2 610660558#3 610660558#4 -443015396#9 -443015396#8 -443015396#5 -443015396#4 -443015396#3 -443015396#2 -443015396#1 443015397#0 443015397#1 442823395#18 1068394334#1 -1067075670#30 -1067075670#29 -1067075670#28 -1067075670#27 -1067075670#26 -1067075670#25 -1067075670#24 1068400938#0 1068400938#1 1068400938#2 1068400938#3 -1068400937#2 1068494373#0 1068494373#1 -1068400938#0 1067075670#24 1067075670#25 1067075670#26 1067075670#27 1067075670#28 1067075670#29 1067075670#30 610660589#21 610660589#22 610660589#23 610660589#24 610660586#0 610660586#1 610660586#2 610660586#3 610660586#4 610660586#5 610660586#6 610660586#7 610660586#8 610660586#9 610660586#10 610660586#11 610660586#12 610660586#13 610660585#0 610660585#1 610660585#2 610660585#3 164460760#0 164460760#1 164460760#2 164460760#3 164460760#4 164460760#5 164460760#6 164460760#7 164460760#8 164460760#9 164460760#10 164460760#11 164460760#12 164460760#13 164460760#15 164460760#16 164460760#17 164460760#18 164460760#19 164460760#21 164460760#22 -442865417#7 -442865417#6 -442865417#5 -442865417#4 -442865417#3 -442865417#2 -442865417#1 -442865417#0 1069507021#9 1069507021#10 -1069504039#2 -1069504039#1 -1069504039#0 442865415#8 1069560043 -1069560043 -442865415#8 1069504039#0 1069504039#1 1069504039#2 -1069507021#10 -1069507021#9 442865417#0 442865417#1 442865417#2 442865417#3 442865417#4 442865417#5 442865417#6 442865417#7 -164460760#22 -164460760#21 -164460760#19 -164460760#18 -164460760#17 -164460760#16 -164460760#15 -164460760#13 -164460760#12 -164460760#11 -164460760#10 -164460760#9 -164460760#8 -164460760#7 -164460760#6 -164460760#5 -164460760#4 -164460760#3 -164460760#2 1069173390 -1069141902#5 1069141909 -1069141911#6 -1069141911#5 -1069141911#4 -1069141911#3 -1069141911#2 -1069141911#1 -1069141911#0 442825800#30 610660585#0 610660585#1 -1069218325#4 -1069218325#2 -1069218325#0 -400928133#9 -400928133#8 -400928133#7 -400928133#6 -400928133#5 -400928133#4 -400928133#3 -400928133#2 -400928133#1 -400928133#0 -610660584#1 -610660584#0 -610660585#3 -610660585#2 -610660585#1 -610660585#0 1068453640#0 1068453640#1 1069218321#0 1069218321#1 1069218321#2 1069218321#3 1069233621#0 -1069233621#0 -1069218321#3 -1069218321#2 -1069218321#1 -1069218321#0 -1068453640#1 -1068453640#0 610660585#0 610660585#1 610660585#2 610660585#3 164460760#0 164460760#1 164460760#2 164460760#3 164460760#4 164460760#5 164460760#6 164460760#7 164460760#8 164460760#9 164460760#10 164460760#11 164460760#12 164460760#13 164460760#15 164460760#16 164460760#17 164460760#18 164460760#19 164460760#21 164460760#22 164460760#24 164460760#25 164460760#26 164460760#28 164460760#29 164460760#30 164460760#31 164460760#32 164460760#33 164460760#34 164460760#35 164460760#36 164460760#38 164460760#39 164460760#41 164460760#42 164460760#43 164460760#44 164460760#45 164460760#46 164460760#47 164460760#48 164460760#49 164460760#50 164460760#51 164460760#52 164460760#54 164460760#55 164460760#56 164460760#57 164460760#58 164460760#59 164460760#60 164460760#61 164460760#62 164460760#63 164460760#64 164460760#65 164460760#67 164460760#68 164460760#69 164460760#71 164460760#72 164460760#73 1070118068#0 1070118068#1 1070118068#2 1070118068#3 1070118068#4 1070118068#6 1070118068#7 1070118068#8 1070118068#9 1070118068#10 1070118068#11 1070118068#13 1070118068#14 1070118068#15 1070118068#16 1070118068#17 1070118068#18 1070119531#1 1070119531#2 1070119531#3 1070119531#4 1070119531#5 1070119531#6 1070119531#7 1070119531#8 1070119531#9 1070119531#10 1070119531#11 1070119531#12 1070119531#13 1070251349#1 1070251349#2 1070251349#3 1070251349#4 1070251349#5 1070251349#6 1070251349#7 1070251349#8 1070251349#9 1070251349#10 1070251349#11 1070251349#12 172512016#1 172512016#2 172512016#4 172512016#5 172512016#6 172512016#7 172512016#8 172512016#9 172512016#10 172512016#12 172512016#13 172512016#14 172512016#15 172512016#17 172512016#18 172512016#22 172512016#24 172512016#25 1307403141 1075299540 172507732#0 172507732#1 172507732#3 172507732#5 172507732#6 172507732#7 172507732#8 172507732#10 172507732#12 172507732#13 172507732#14 172507732#15 172507732#17 172507732#23 172507732#26 172507732#27 172507732#28 172507732#29 172507732#30 172507732#31 172507732#32 172507732#34 172507740#1 172507740#2 172507740#3 172507740#4 172507740#5 1075250089#1 1075250089#2 1075250089#3 1075250089#4 172522699#0 172522699#1 172522699#2 172522699#3 172522699#4 172522699#5 172522699#6 172522699#7 172522699#8 172522699#9 1305179756#0 -172511904#1 -1313714337 -172532168#1 -172532168#0 -143390901#58 -143390901#56 -143390901#53 -143390901#52 -143390901#50 -143390901#49 -143390901#48 -143390901#42 -143390901#41 -143390901#39 -143390901#37 -143390901#36 -143390901#35 -143390901#34 -143390901#33 -143390901#32 -143390901#31 -143390901#29 -143390901#28 -143390901#27 -143390901#26 -143390901#25 -143390901#23 -143390901#22 -143390901#21 -143390901#20 -143390901#19 -143390901#17 -143390901#16 -143390901#15 -143390901#14 -143390901#13 -143390901#12 -143390901#11 -143390901#10 -143390901#9 -143390901#8 -143390901#7 -143390901#6 -143390901#5 -143390901#4 -143390901#3 -143390901#2 -143390901#1 -143390901#0 -1065206201#84 -1065206201#83 -1065206201#82 -1065206201#81 -1065206201#80 -1065206201#79 -1065206201#78 -1065206201#77 -1065206201#76 -1065206201#75 -1065206201#73 -1065206201#72 -1065206201#71 -1065206201#70 -1065206201#69 -1065206201#67 -1065206201#66 -1065206201#65 -1065206201#64 -1065206201#63 -1065206201#62 -1065206201#61 -1065206201#60 -1065206201#59 -1065206201#58 -1065206201#57 -1065206201#55 -1065206201#54 -1065206201#52 -1065206201#51 -1065206201#50 -1065206201#49 -1065206201#48 -1065206201#47 -1065206201#45 -1065206201#44 1069589246#0 1069589246#1 -1069589246#1 -1069589246#0 1065206201#44 1065206201#45 1065206201#47 1065206201#48 1065206201#49 1065206201#50 1065206201#51 1070247721#0 -1070247724#1 -1070247724#0 421466342#2 421466342#3 421466342#4 421466344#2 421466344#3 -421466307#10 -421466307#9 -421466307#8 -421466307#7 -421466307#6 -421466307#5 -421466307#3 -421466307#1 -1069829885#8 -1069829885#7 -1069829885#6 -1069829885#5 -1069829885#4 1069838369 -1069838369 1069829885#4 1069829885#5 1069829885#6 1069839054 -143088612#9 -143088612#8 -1069127037#14 -1069127037#13 -1069127037#12 -1069127037#11 1069136345 -1094199599#2 1094199602 -1094199601#0 1094199601#0 -1094199601#0 1069130149#9 1069130149#10 1069130149#11 1069130149#12 1069130149#13 1069125637#5 1069153189#0 1069153189#1 1069153190 143088603#22 143088603#23 143088603#24 143088603#25 143088603#26 143088603#27 143088603#29 143088603#30 143754203#2 143754203#3 143754203#5 143754203#6 1069123659#0 1069123659#1 1069123659#2 1069123659#3 1069123659#4 1069123659#5 1069123659#6 1069123659#7 1069123659#8 1069123659#9 1069123659#10 1069123659#11 1069123659#12 1069123659#13 -144134211#1 -144134211#0 -1069855492 -1069874457#2 1069856595#0 1070276752#0 1070276752#1 -1070276752#1 -1070276752#0 -1069856595#0 1069874457#2 144134218#1 144134211#0 144134211#1 1069859746 144134125#0 144134125#1 144134125#2 144134125#3 144134125#4 144134125#5 144134125#6 144134125#7 144134125#8 144134125#9 144134125#11 144134125#13 144134125#14 143947181#0 143947181#2 -143947168#0 -143947176#1 -143947176#0 143212980#1 143212980#2 143212980#3 143212980#4 143212980#5 143212980#6 143212980#7 143212980#8 143212980#9 143212980#10 143212980#11 143212980#12 143212980#13 143212980#14 143212980#15 143212980#16 143212980#17 143212980#18 -1065206201#73 -1065206201#72 -1065206201#71 -1065206201#70 -1065206201#69 -1065206201#67 -1065206201#66 -1065206201#65 -1065206201#64 -1065206201#63 -1065206201#62 -421726425#8 -421726425#7 -421726425#6 -421726425#5 -421726425#3 -421726425#2 -421726425#1 -421460724#39 -421460724#38 -421460724#37 -421460724#36 -421460724#35 -421460724#34 -421460724#33 -421460724#32 -421460724#31 -421460724#30 -421726429#13 -421726429#12 -421726429#11 -421726429#9 -421726429#8 -421726429#7 -421726429#6 -421726429#5 -421726429#3 421726426#0 421726426#1 -421726426#1 -421726426#0 421726429#3 421726429#5 421726429#6 421726429#7 421726429#8 421726429#9 421726429#11 421726429#12 421726429#13 -421466308#7 -421466308#6 -421466308#4 -421466308#3 -421466308#2 -421466308#1 -421466308#0 1069589246#0 1069589246#1 1069589246#2 1069589246#3 1069821782#0 1069821782#2 1069821782#3 -1069821782#3 -1069821782#2 -1069821782#0 -1069589246#3 -1069589246#2 -1069589246#1 -1069589246#0 1065206201#44 1065206201#45 1065206201#47 1065206201#48 1065206201#49 1065206201#50 1065206201#51 1065206201#52 1065206201#54 1065206201#55 1065206201#57 1065206201#58 1065206201#59 1065206201#60 1065206201#61 1065206201#62 1065206201#63 1065206201#64 1065206201#65 1065206201#66 1065206201#67 1065206201#69 1065206201#70 1065206201#71 1065206201#72 1065206201#73 1065206201#75 1065206201#76 1065206201#77 1065206201#78 1065206201#79 1065206201#80 1065206201#81 1065206201#82 1065206201#83 1065206201#84 1065206201#85 143390901#1 143390901#2 143390901#3 143390901#4 143390901#5 143390901#6 143390901#7 143390901#8 143390901#9 143390901#10 143390901#11 143390901#12 143390901#13 143390901#14 143390901#15 143390901#16 143390901#17 143390901#19 143390901#20 143390901#21 143390901#22 143390901#23 143390901#25 143390901#26 143390901#27 143390901#28 143390901#29 143390901#31 143390901#32 143390901#33 143390901#34 143390901#35 143390901#36 143390901#37 143390901#38 143390901#41 143390901#42 143390901#48 143390901#49 143390901#50 143390901#51 143390901#53 143390901#56 143390901#57 143390901#59 172532168#1 1313714338 172511904#1 1305179755#1 172522698#0 172522698#1 172522698#2 172522698#3 172522698#4 172522698#5 172522698#6 172522698#7 172522698#8 172522698#9 172522698#10 172522867#0 172522867#1 172522867#2 172522867#3 172522867#5 172522867#6 172522867#7 172522867#8 172522867#10 172522867#11 1074995246#0 1074995246#1 1074995246#2 1074995246#3 1074995246#4 1074995246#5 -172522904#1 172522904#1 -1074995246#5 -1074995246#4 -1074995246#3 -1074995246#2 -1074995246#1 -1074995246#0 -172522864#0 -172522867#10 -172522867#8 -172522867#7 -172522867#6 -172522867#5 -172522867#3 -172522867#2 -172522867#1 -172522867#0 172522699#0 172522699#1 172522699#2 172522699#3 172522699#4 172522699#5 172522699#6 172522699#7 172522699#8 172522699#9 776518297#0 776518297#1 776518297#3 776518297#4 776518297#5 776518297#6 776518297#7 776518297#8 776518297#9 776518297#10 776518297#11 776518297#11-AddedOffRampEdge 1313713617 358626951#1 -358626950#60 -358626950#59 -358626950#58 -358626950#57 -358626950#56 -358626950#55 -358626950#54 -358626950#53 -358626950#51 -358626950#49 -358626950#47 -358626950#46 -358626950#45 -358626950#44 -358626950#43 -358626950#42 -358626950#41 -358626950#39 -358626950#38 -358626950#37 -358626950#36 -358626950#34 -358626950#33 -358626950#32 -358626950#30 -358626950#29 -358626950#28 -358626950#27 -358626950#26 -358626950#25 -358626950#24 -358626950#22 -358626950#21 -358626950#20 -358626950#19 -358626950#17 -358626950#16 -358626950#15 -358626950#14 -358626950#13 -358626950#11 -358626950#10 -358626950#8 -358626950#7 -358626950#5 -358626950#4 -358626950#3 -358626950#2 -358626950#1 -358626950#0 1054721698#0 -1054721698#0 -1054721702#10 -1054721702#9 -1054721702#8 -1054721702#7 -1054721702#6 -1054721702#5 -1054721702#4 -1054721702#3 -1054721702#2 -1054721702#1 -1054721702#0 -423396486#3 -423396486#2 -423396486#1 -423396486#0 1054721728#1 -423127458#1 -423127458#0 -1054722810 -1054722827 -1240127339#1 -1240127339#0 1054722830#0 422013375#3 1240127337#1 1240127337#3 1240127337#4 1240127337#5 423385251#1 -423385248#6 -423385248#5 -423385248#4 -423385248#3 -423385248#2 -423385248#1 -423385248#0 358626923#38 358626923#39 358626923#40 358626923#41 -422133569#7 -422133569#6 -422133569#5 -422133569#3 -422133569#2 -422133569#1 -422133569#0 -358626921#22 1054725924 -423404087#0 423396411#0 423396411#1 423396411#2 423396411#3 423396411#4 423396411#5 423396411#6 423396411#7 358626939#14 -423300842#6 -423300842#5 -423300842#4 -423300842#3 -423300842#2 -423300842#1 -423300842#0 423281411#7 423281411#8 423281411#9 423281411#10 423281411#11 423281411#12 423281411#13 423281411#14 340393297#14 -1054728964 423270568#9 423270568#10 423281410#3 423281395#0 423281395#1 -423270625#9 -423270625#8 -423270625#7 -423270625#6 -423270625#5 -423281356#8 -423281356#7 -423281356#6 -423281356#5 -423281356#3 -423281356#2 -423281356#1 -423281356#0 358617419#0 358617419#1 358617419#2 358617419#3 -358617407#2 -358617407#1 -358617407#0 358617187#4 358617187#5 358617187#6 358617187#7 358617187#9 358617187#10 358617187#11 358617187#12 358617187#13 358617187#14 358617236 358617399#4 358617399#5 358617400#1 358617400#2 358617400#3 358617400#4 358617400#5 358617176#16 358617176#17 358617176#19 358617176#20 358617322#0 1074705366#0 -1054727059 -358617185#6 -358617185#5 -358617185#4 -358617185#3 -358617185#2 -358617185#1 -358617185#0 -1240157502#1 -1240157502#0 1240157501#0 1240157501#1 1240157501#2 1240157501#4 172507732#13 172507732#14 172507732#15 172507732#17 172507732#23 172507732#26 172507732#27 172507732#28 172507732#29 172507732#30 172507732#31 172507732#32 172507732#34 172507740#1 172507740#2 172507740#3 172507740#4 172507740#5 1075250089#1 1075250089#2 1075250089#3 1075250089#4 172522699#0 172522699#1 172522699#2 172522699#3 172522699#4 172522699#5 172522699#6 172522699#7 172522699#8 172522699#9 1305179756#0 -172511904#1 -1313714337 -172532168#1 -172532168#0 -143390901#58 -143390901#56 -143390901#53 -143390901#52 -143390901#50 -143390901#49 -143390901#48 -143390901#42 -143390901#41 -143390901#39 -143390901#37 -143390901#36 -143390901#35 -143390901#34 -143390901#33 -143390901#32 -172714210#43 -172714210#42 -172714210#40 -172714210#39 -172714210#38 -172714210#36 -172714210#35 -172714210#34 -172714210#33 -172714210#32 -172714210#30 -172714210#29 -172714210#28 -172714210#27 -172714210#26 -172714210#25 -172714210#23 -172714210#22 -172714210#21 -172714210#20 -172714210#18 -172714210#17 -172714210#15 -172714210#14 -172714210#12 -172714210#11 -172714210#10 -172714210#8 -1075954641#1 -1075954641#0 1075954641#0 1075954641#1 172714210#8 172714210#10 172714210#11 172714210#12 172714210#14 172714210#15 1070604592 1075954613 1075943747#1 1075943747#2 1075943747#3 1075943747#4 -421941197#22 -421941197#21 -421941197#20 -421941197#19 -421941197#18 -421941197#17 -421941197#16 -421945824#0 -143390901#0 -1065206201#84 -1065206201#83 -172714225#32 -172714225#31 -172714225#30 -172714225#29 -172714225#28 -172714225#27 -172714225#26 -172714225#25 -172714225#24 -172714225#23 -172714225#22 -172714225#21 -172714225#20 -172714225#19 -172714225#18 -172714225#17 -172771600 172771600 172714225#17 172714225#18 172714225#19 172714225#20 172714225#21 172714225#22 172714225#23 172714225#24 172714225#25 -1083238225 -172771665#4 -172771665#3 1306163152#0 1306163152#1 421800625#3 421800625#4 421800625#5 1075943742 421800629#9 422014997 421800588#0 421800634#1 -421800593#1 421800503#6 421800503#7 421800503#8 421800503#9 421800503#10 421800503#11 -1075941570 143390901#3 143390901#4 143390901#5 143390901#6 143390901#7 143390901#8 143390901#9 143390901#10 143390901#11 143390901#12 143390901#13 143390901#14 143390901#15 143390901#16 143390901#17 172714221 421986022#0 421986022#1 -1241924076 -421986021#4 -421986021#3 -421986021#2 421985955 -421985956#8 421985904 -172714182#18 172714182#18 172714182#19 421971436#0 421971436#1 -421971435#3 -421971435#2 -421971435#1 421971352#0 -421971403#2 -172714200#2 -421971408#1 -421971408#0 421971434#1 421971434#2 421971434#3 421971447#28 421971447#29 421971447#30 421971447#31 421971447#32 421971447#33 421971447#34 421971447#35 421971447#36 421971447#37 421971447#39 421971447#40 421971447#41 421971447#42 421971447#43 421971447#44 421971447#45 -172573270#29 -172573270#28 -172573270#27 -172573270#26 -172573270#25 -172573270#24 -172573270#23 -172573270#22 -172573270#21 -172573270#19 -172573270#18 -172573270#17 -172573270#16 -172573270#15 -172573270#13 -172573270#12 -172573270#11 -172573270#10 -172573270#9 -172573270#8 -172573270#7 -172573270#5 -172573270#4 -172573270#3 -172573270#2 -172573270#1 172573301#1 172573301#2 172573301#3 172573301#4 172573301#5 172573301#6 172573301#7 172573301#8 -1076242462 -422015090#5 -422015090#4 -422015090#3 -422015090#2 -422015090#1 -422015077#1 -422015088#5 -422015088#4 -422015088#3 -422015048 -172573541#20 -172573541#18 -172573541#17 -172573541#15 -172573541#14 -172573541#13 -172573541#12 -172573541#11 -421756794#1 -421756794#0 -421738581#13 -421738581#12 -421738581#11 -421738581#10 421738581#10 421738581#11 421738581#12 421738581#13 421756794#0 421756794#1 172573541#11 172573541#12 172573541#13 172573541#14 172573541#15 172573541#17 172573541#18 172573541#20 172573541#21 172573541#22 172573541#23 172573541#25 172573541#26 172573541#27 172573541#29 172573270#1 172573270#2 172573270#3 172573270#4 172573270#5 172573270#7 172573270#8 172573270#9 172573270#10 172573270#11 172573270#12 172573270#13 172573270#15 172573270#16 172573270#17 172573270#18 172573270#19 172573270#21 172573270#22 172573270#23 172573270#24 172573270#25 172573270#26 172573270#27 172573270#28 172573270#29 172573270#30 172573270#31 172573340#0 172573340#1 172573340#2 421951801#1 421951893#1 -422771376 -172573340#3 421951801#1 421951893#1 421951893#3 421951893#4 -1244063422#1 1244063696#0 1244063696#1 1244063696#2 421951774#4 421951774#6 421951774#7 421951774#8 421951774#9 421951774#10 421951774#11 421951774#12 421951774#13 421951774#14 421951774#15 421951774#16 421951774#18 421951774#19 421951774#20 421951774#21 421951774#22 421951774#24 421951774#25 421951774#26 421951774#27 421951774#28 421951774#29 421951774#30 421951774#31 172714181#23 172714181#24 172714181#25 172714181#27 172714181#28 172714181#29 172714181#30 172714181#32 172714181#34 172714181#35 172714181#36 172714181#37 172714181#39 172714181#41 -172714210#43 -172714210#42 1075966434#1 1075966434#2 1075966438#1 1075966438#2 421965163#1 421965163#2 421756561#17 421756561#18 421756561#19 1075963066 -143390941#7 -143390941#6 421756626#0 421756626#1 -421756626#1 -421756626#0 -143390941#5 -143390941#4 -143390941#3 -143390941#2 -143390941#1 -143390941#0 -1069874458 421794868#1 -1069874457#2 -1069874457#1 -1069874457#0 1069133082#1 143095634#0 143095634#1 143095634#2 -143802921#6 -1069150699 143095634#2 143095634#3 143095634#4 143095634#5 143095634#6 143095634#7 143095634#8 143095634#9 143095634#11 143095634#12 143095634#13 1069818216#1 1069818216#2 1069818216#3 143802934#4 143802934#5 143802934#6 143802934#7 143802934#8 143802934#9 143802934#11 143802934#12 -143353810#22 -143353810#21 -143353810#20 143948765#0 143948765#1 143948765#2 143948765#3 -143948765#3 143948765#3 143948765#4 143948765#5 143948765#6 -143948677#2 -143948677#1 -143948677#0 -143948736#0 1069145679#1 1069145679#2 143802932 143217110#0 143217110#1 -1069175687#0 143217098#8 143217098#9 143217098#10 1069216976 1069175684#1 1069175684#2 1069175684#4 -1069175684#4 -1069175684#2 -1069175684#1 -1069175684#0 143217098#14 143217098#15 1068456744#0 -1069498932#3 -1069498932#2 -1069498932#1 -1069498932#0 -143095663#3 -143095663#2 -143095663#1 143095653#0 143095653#1 143095653#3 143095653#5 143095653#6 143095653#7 143095653#9 -144134029#7 -144134029#6 -144134029#5 -144134029#4 -144134029#2 -144134029#1 -374428590#6 -374428590#5 -374428590#4 -374428590#2 -374428590#1 -374428590#0 -1069488299#0 -143213048#12 -143213048#10 -143213048#9 -143213048#7 -143213048#6 -143213048#5 -143213048#3 -143213048#2 -143213048#1 -143213048#0 -1344440422 374428591#0 374428591#1 374428591#2 374428591#3 374428591#4 374428591#5 374428591#6 374428591#7 374428591#8 374428591#10 374428591#11 374428591#12 374428591#13 374428591#14 374428591#15 143095608#6 143095608#7 143095608#8 143095608#9 143095608#10 143095608#11 143095608#12 143095608#13 143095608#14 143095608#16 143095608#17 143095608#18 143095608#19 143095608#20 143095608#21 143095608#23 143095608#24 143095608#25 143095608#26 143095608#27 143095608#28 143095608#30 143095608#31 143095608#32 143095608#33 143095608#35 -1071421656#11 -1071421656#10 -1071421656#8 -1071421656#5 -1071421656#3 -1071421656#2 -1071421656#0 421729248#1 421729248#2 421729248#3 421729248#4 421729248#5 421729248#6 421729248#7 421729248#8 421729248#9 421729208#0 421729208#1 -421729252#9 -421729252#8 -421729252#7 -421729252#6 -421729252#5 -421737094#1 -421737094#0 421737144#2 -421737125#1 -421737125#0 421737164#7 421737164#8 421737164#9 421729246#5 421740796#0 421740796#1 421740787#0 421740787#1 -421740787#1 -421740787#0 -421740796#1 -421740796#0 -421729246#5 -421729246#4 -421729246#3 -421729246#2 -421729246#1 -421729246#0 1075966441#0 1075966441#1 -421729248#11 -421729248#10 -421729248#9 -421729248#8 -421729248#7 -421729248#6 -421729248#5 -421729248#4 -421729248#3 -421729248#2 -421729248#1 -421729248#0 1071421656#2 1071421656#3 1071421656#5 1071421656#8 1071421656#10 1071421656#11 421935738#0 421935738#1 421935738#2 421935738#3 421935738#4 421935738#5 421935738#6 421935738#7 421935738#8 421935738#9 421935738#10 421935738#12 421935738#13 421935738#14 421935738#15 421935738#16 421935738#17 421935738#19 421935738#20 421935738#21 421935740 1071466278#1 1071466278#2 1071470249#0 1071470249#1 1071470249#2 1071470249#3 1071470249#4 1071470249#5 -143183262#29 -143183262#28 -143183267#11 -143183267#10 -143183267#8 -143183267#7 -143183252#13 -143183252#12 -143183252#11 -143183252#10 -143183252#9 -143183252#8 -143183252#7 -143183252#6 -143183252#5 -143183252#4 -143183252#3 -143183252#2 -143183252#1 143183252#1 143183252#2 143183252#3 1069824785#0 1069824785#1 1069824785#2 -421978742#4 -421978742#3 -421978742#2 -421978742#1 -421978742#0 1218559193#0 1218559193#1 1218559193#2-AddedOnRampEdge 1218559193#2 -1292067803 1292623230#0 1292623230#1 1070280789#0 1070280789#1 -1070507463#1 -1070507463#0 -421939328#3 -421939328#2 -421939328#1 421948439#1 -1070274192#0 1070274192#0 -421948439#1 421939328#1 421939328#2 421939328#3 421939328#4 421939328#5 421939328#7 421939328#8 -421939353#0 -1292623230#0 1292067803 172511957#1 172511957#2 172511957#3 172511957#4 1060427763#7 1060427763#8 1060427763#9 1060427763#10 1296274514 1061648986#1-AddedOnRampEdge 1061648986#1 1313712441#0 1313712441#1 1313712441#2 1313712442 143605483#0-AddedOnRampEdge 143605483#0 143605483#1 143605483#1-AddedOffRampEdge 1062249993#0 1062249993#1 1062249993#4 1062249993#5 1062249993#6 1074119300#0 1074119300#1 1074119300#2 1074119300#3 1074119300#4 1074119300#5 1074119301#0 1074119301#1 172532209#0 -1074111724#1 -1074111724#0 -421729248#40 -421729248#39 -421729248#38 -421729248#37 -421729248#36 -421729248#35 1076577749#0 1076577749#1 1076577743#0 1076577743#1 1076577743#2 1076564306#2 1076564306#4 1076564306#5 1076564306#6 1076564306#8 -421729248#27 -421729248#26 -421729248#25 -421729248#24 -421729248#23 -421729248#22 -421729248#21 -421729248#20 -423115888#11 -423115888#10 -423115888#8 -423115888#7 -423115888#6 421943871#0 -421948024#3 -421948024#2 -421948024#1 -421948024#0 -421943836 421729248#26 421729248#27 421729248#28 421729248#29 421729248#30 421729248#32 421729248#33 421729248#34 421729248#35 421729248#36 421729248#37 421729248#38 421729248#39 421729248#40 421729248#41 1074111724#1 172532209#1 172532209#2 172532209#3 172532209#4 172532209#5 172532209#6 172532209#8 172532209#9 172532209#10 172532209#11 172532209#13 172532209#14 172532209#15 172532209#16 172532209#17 172532209#19 172532209#20 172532209#21 172532209#22 172532209#23 172532209#24 172532209#25 172532209#27 172532209#28 172532209#30 1074111736#1 188125789#0 188125789#1 188125789#3 188125789#4 -143390901#53 -143390901#52 -143390901#50 -143390901#49 -143390901#48 172538668#3 172538668#5 172538668#6 172538668#7 172538668#8 172538668#9 172538668#10 172538668#11 172538668#12 172538668#13 172538668#14 172538668#16 172538668#17 172538668#18 172538668#19 172538668#20 172538668#21 172538668#22 172538668#24 172538668#25 172538668#26 172538668#27 172538668#28 172538735#0 172538735#1 172538735#2 172538735#3 172538735#4 172538735#5 172538735#6 172538735#8 172538735#9 172538735#10 172538735#11 172538735#12 172538735#13 172538735#14 172538735#15 172538735#16 172538735#21 172538735#22 172538735#23 172538735#25 1138261014 172538736#1 172538736#2 172538736#4 172538736#5 172538736#6 172538736#7 172538736#8 172538736#10 172544808#3 172573224#0 172573224#1 172573224#2 172573224#3 172573224#4 172573224#5 1074478641#0 1074478641#1 -172584918#2 -172584918#1 -172584918#0 172584860#0 172584860#1 172584860#2 172584860#4 172584860#5 172584860#6 172584860#7 172584860#8 172584860#9 172584860#10 172584860#11 172584860#12 172584860#13 1065489331#2 465850688#1 465850688#2 465850688#3 465850688#4 172589805#1 172589805#2 172589805#3 172589805#4 172589805#5 172589805#6 172589805#8 172589805#9 172589805#10 172589805#11 172311516#0 172311516#1 172311516#2 172311516#3 172311516#4 172311516#10 172311516#11 172311516#12 172311516#13 172311516#14 172311516#15 172311516#16 172311516#17 172311516#18 172311516#19 172311516#22 172311516#23 172311516#24 172311516#25 172311516#26 172311516#27 172311516