<?xml version='1.0' encoding='utf-8'?>
<routes><trip id="delivery1" type="delivery" depart="0" from="1250238604#2" to="1250238604#2" /><trip id="delivery2" type="delivery" depart="1" from="1069175684#2" to="1069175684#2" /><trip id="delivery3" type="delivery" depart="2" from="423069929#2" to="423069929#2" /><trip id="delivery4" type="delivery" depart="3" from="1068453640#1" to="1068453640#1" /><trip id="delivery5" type="delivery" depart="4" from="172498097" to="172498097" /><trip id="delivery6" type="delivery" depart="5" from="1076564306#2" to="1076564306#2" /><trip id="delivery7" type="delivery" depart="6" from="1069840061#0" to="1069840061#0" /><trip id="delivery8" type="delivery" depart="7" from="172671774#1" to="172671774#1" /><trip id="delivery9" type="delivery" depart="8" from="-1069868748" to="-1069868748" /><trip id="delivery10" type="delivery" depart="9" from="172573270#28" to="172573270#28" /><trip id="delivery11" type="delivery" depart="10" from="1193701478" to="1193701478" /><trip id="delivery12" type="delivery" depart="11" from="-421435477#3" to="-421435477#3" /><trip id="delivery13" type="delivery" depart="12" from="-172320305#6" to="-172320305#6" /><trip id="delivery14" type="delivery" depart="13" from="1069838369" to="1069838369" /><trip id="delivery15" type="delivery" depart="14" from="-422134501#0" to="-422134501#0" /><trip id="delivery16" type="delivery" depart="15" from="-172512007#4" to="-172512007#4" /><trip id="delivery17" type="delivery" depart="16" from="-358626950#20" to="-358626950#20" /><trip id="delivery18" type="delivery" depart="17" from="-1072209368" to="-1072209368" /><trip id="delivery19" type="delivery" depart="18" from="-172405635#7" to="-172405635#7" /><trip id="delivery20" type="delivery" depart="19" from="421262937#9" to="421262937#9" /><trip id="delivery21" type="delivery" depart="20" from="172671822#1" to="172671822#1" /><trip id="delivery22" type="delivery" depart="21" from="-423115888#7" to="-423115888#7" /><trip id="delivery23" type="delivery" depart="22" from="1069471946" to="1069471946" /><trip id="delivery24" type="delivery" depart="23" from="358617187#11" to="358617187#11" /><trip id="delivery25" type="delivery" depart="24" from="1107635400#13" to="1107635400#13" /><trip id="delivery26" type="delivery" depart="25" from="-1049236648" to="-1049236648" /><trip id="delivery27" type="delivery" depart="26" from="-1069589246#1" to="-1069589246#1" /><trip id="delivery28" type="delivery" depart="27" from="-1241924076" to="-1241924076" /><trip id="delivery29" type="delivery" depart="28" from="-1069577777#0" to="-1069577777#0" /><trip id="delivery30" type="delivery" depart="29" from="-1046138350#1" to="-1046138350#1" /><trip id="delivery31" type="delivery" depart="30" from="-172387762#3" to="-172387762#3" /><trip id="delivery32" type="delivery" depart="31" from="172544807#5" to="172544807#5" /><trip id="delivery33" type="delivery" depart="32" from="-143948765#3" to="-143948765#3" /><trip id="delivery34" type="delivery" depart="33" from="172492362#6" to="172492362#6" /><trip id="delivery35" type="delivery" depart="34" from="1069141909" to="1069141909" /><trip id="delivery36" type="delivery" depart="35" from="1070274192#0" to="1070274192#0" /><trip id="delivery37" type="delivery" depart="36" from="-1075249038#0" to="-1075249038#0" /><trip id="delivery38" type="delivery" depart="37" from="1069506316#0" to="1069506316#0" /><trip id="delivery39" type="delivery" depart="38" from="-422771376" to="-422771376" /><trip id="delivery40" type="delivery" depart="39" from="422013375#3" to="422013375#3" /><trip id="delivery41" type="delivery" depart="40" from="188600284#0" to="188600284#0" /><trip id="delivery42" type="delivery" depart="41" from="-172714182#18" to="-172714182#18" /><trip id="delivery43" type="delivery" depart="42" from="1075054058#0" to="1075054058#0" /><trip id="delivery44" type="delivery" depart="43" from="421985955" to="421985955" /><trip id="delivery45" type="delivery" depart="44" from="423069926#1" to="423069926#1" /><trip id="delivery46" type="delivery" depart="45" from="1067130509" to="1067130509" /><trip id="delivery47" type="delivery" depart="46" from="172344563#1" to="172344563#1" /><trip id="delivery48" type="delivery" depart="47" from="421990767#0" to="421990767#0" /><trip id="delivery49" type="delivery" depart="48" from="-172544915#2" to="-172544915#2" /><trip id="delivery50" type="delivery" depart="49" from="-1069506312#3" to="-1069506312#3" /><trip id="delivery51" type="delivery" depart="50" from="1069476510" to="1069476510" /><trip id="delivery52" type="delivery" depart="51" from="-421982689#0" to="-421982689#0" /><trip id="delivery53" type="delivery" depart="52" from="-610665204#22" to="-610665204#22" /><trip id="delivery54" type="delivery" depart="53" from="705443881#2" to="705443881#2" /><trip id="delivery55" type="delivery" depart="54" from="-188605030#0" to="-188605030#0" /><trip id="delivery56" type="delivery" depart="55" from="172671655" to="172671655" /><trip id="delivery57" type="delivery" depart="56" from="1069506695" to="1069506695" /><trip id="delivery58" type="delivery" depart="57" from="-1069867754#0" to="-1069867754#0" /><trip id="delivery59" type="delivery" depart="58" from="1295220267" to="1295220267" /><trip id="delivery60" type="delivery" depart="59" from="-1241875639" to="-1241875639" /><trip id="delivery61" type="delivery" depart="60" from="358614347#4" to="358614347#4" /><trip id="delivery62" type="delivery" depart="61" from="443224532#6" to="443224532#6" /><trip id="delivery63" type="delivery" depart="62" from="1068431581#14" to="1068431581#14" /><trip id="delivery64" type="delivery" depart="63" from="-172511977#2" to="-172511977#2" /><trip id="delivery65" type="delivery" depart="64" from="-421435472" to="-421435472" /><trip id="delivery66" type="delivery" depart="65" from="-421799060#9" to="-421799060#9" /><trip id="delivery67" type="delivery" depart="66" from="-172507687#4" to="-172507687#4" /><trip id="delivery68" type="delivery" depart="67" from="1075324121#1" to="1075324121#1" /><trip id="delivery69" type="delivery" depart="68" from="1073880466#1" to="1073880466#1" /><trip id="delivery70" type="delivery" depart="69" from="1071877829" to="1071877829" /><trip id="delivery71" type="delivery" depart="70" from="560529322#0" to="560529322#0" /><trip id="delivery72" type="delivery" depart="71" from="-1069821782#3" to="-1069821782#3" /><trip id="delivery73" type="delivery" depart="72" from="-1067781261" to="-1067781261" /><trip id="delivery74" type="delivery" depart="73" from="-1214257019#1" to="-1214257019#1" /><trip id="delivery75" type="delivery" depart="74" from="1069868734" to="1069868734" /><trip id="delivery76" type="delivery" depart="75" from="1066052239#1" to="1066052239#1" /><trip id="delivery77" type="delivery" depart="76" from="1075360503" to="1075360503" /><trip id="delivery78" type="delivery" depart="77" from="-1074443483#1" to="-1074443483#1" /><trip id="delivery79" type="delivery" depart="78" from="-1069178778" to="-1069178778" /><trip id="delivery80" type="delivery" depart="79" from="-1069175842#0" to="-1069175842#0" /><trip id="delivery81" type="delivery" depart="80" from="1067127868#2" to="1067127868#2" /><trip id="delivery82" type="delivery" depart="81" from="1240684156#1" to="1240684156#1" /><trip id="delivery83" type="delivery" depart="82" from="-1069150699" to="-1069150699" /><trip id="delivery84" type="delivery" depart="83" from="-172574043" to="-172574043" /><trip id="delivery85" type="delivery" depart="84" from="1187232893" to="1187232893" /><trip id="delivery86" type="delivery" depart="85" from="172573301#5" to="172573301#5" /><trip id="delivery87" type="delivery" depart="86" from="423281395#0" to="423281395#0" /><trip id="delivery88" type="delivery" depart="87" from="188603108#4" to="188603108#4" /><trip id="delivery89" type="delivery" depart="88" from="1069233621#0" to="1069233621#0" /><trip id="delivery90" type="delivery" depart="89" from="172573457" to="172573457" /><trip id="delivery91" type="delivery" depart="90" from="-372578921#5" to="-372578921#5" /><trip id="delivery92" type="delivery" depart="91" from="1070276752#1" to="1070276752#1" /><trip id="delivery93" type="delivery" depart="92" from="-1069205948#0" to="-1069205948#0" /><trip id="delivery94" type="delivery" depart="93" from="-1072191791" to="-1072191791" /><trip id="delivery95" type="delivery" depart="94" from="423104985" to="423104985" /><trip id="delivery96" type="delivery" depart="95" from="422621691#0" to="422621691#0" /><trip id="delivery97" type="delivery" depart="96" from="-421737094#0" to="-421737094#0" /><trip id="delivery98" type="delivery" depart="97" from="-421253503#2" to="-421253503#2" /><trip id="delivery99" type="delivery" depart="98" from="1074129168#1" to="1074129168#1" /><trip id="delivery100" type="delivery" depart="99" from="-1075951928#4" to="-1075951928#4" /><trip id="delivery101" type="delivery" depart="100" from="1049905484#0" to="1049905484#0" /><trip id="delivery102" type="delivery" depart="101" from="372578927#1" to="372578927#1" /><trip id="delivery103" type="delivery" depart="102" from="1074140034#1" to="1074140034#1" /><trip id="delivery104" type="delivery" depart="103" from="610660574#46" to="610660574#46" /><trip id="delivery105" type="delivery" depart="104" from="1094199601#0" to="1094199601#0" /><trip id="delivery106" type="delivery" depart="105" from="1071914474" to="1071914474" /><trip id="delivery107" type="delivery" depart="106" from="172384855#3" to="172384855#3" /><trip id="delivery108" type="delivery" depart="107" from="1074378388#5" to="1074378388#5" /><trip id="delivery109" type="delivery" depart="108" from="-1075954641#1" to="-1075954641#1" /><trip id="delivery110" type="delivery" depart="109" from="172586594#0" to="172586594#0" /><trip id="delivery111" type="delivery" depart="110" from="-421729936#0" to="-421729936#0" /><trip id="delivery112" type="delivery" depart="111" from="-1067844906" to="-1067844906" /><trip id="delivery113" type="delivery" depart="112" from="421800634#1" to="421800634#1" /><trip id="delivery114" type="delivery" depart="113" from="374518182#5" to="374518182#5" /><trip id="delivery115" type="delivery" depart="114" from="172405640" to="172405640" /><trip id="delivery116" type="delivery" depart="115" from="1069477672#2" to="1069477672#2" /><trip id="delivery117" type="delivery" depart="116" from="-1069477638#0" to="-1069477638#0" /><trip id="delivery118" type="delivery" depart="117" from="-1069188909#0" to="-1069188909#0" /><trip id="delivery119" type="delivery" depart="118" from="172344581#0" to="172344581#0" /><trip id="delivery120" type="delivery" depart="119" from="776290186#6" to="776290186#6" /><trip id="delivery121" type="delivery" depart="120" from="421730040#0" to="421730040#0" /><trip id="delivery122" type="delivery" depart="121" from="1061072247#1" to="1061072247#1" /><trip id="delivery123" type="delivery" depart="122" from="172671788#0" to="172671788#0" /><trip id="delivery124" type="delivery" depart="123" from="-421466353#4" to="-421466353#4" /><trip id="delivery125" type="delivery" depart="124" from="1075042279#1" to="1075042279#1" /><trip id="delivery126" type="delivery" depart="125" from="423270568#9" to="423270568#9" /><trip id="delivery127" type="delivery" depart="126" from="-1070234686" to="-1070234686" /><trip id="delivery128" type="delivery" depart="127" from="-421740787#1" to="-421740787#1" /><trip id="delivery129" type="delivery" depart="128" from="-172714200#2" to="-172714200#2" /><trip id="delivery130" type="delivery" depart="129" from="421972372" to="421972372" /><trip id="delivery131" type="delivery" depart="130" from="-191207550#16" to="-191207550#16" /><trip id="delivery132" type="delivery" depart="131" from="-422133569#2" to="-422133569#2" /><trip id="delivery133" type="delivery" depart="132" from="-1075049475#3" to="-1075049475#3" /><trip id="delivery134" type="delivery" depart="133" from="1067498379#3" to="1067498379#3" /><trip id="delivery135" type="delivery" depart="134" from="-143683396#1" to="-143683396#1" /><trip id="delivery136" type="delivery" depart="135" from="-1068400937#2" to="-1068400937#2" /><trip id="delivery137" type="delivery" depart="136" from="172348362#1" to="172348362#1" /><trip id="delivery138" type="delivery" depart="137" from="-425427947#2" to="-425427947#2" /><trip id="delivery139" type="delivery" depart="138" from="-1070497276" to="-1070497276" /><trip id="delivery140" type="delivery" depart="139" from="213169560" to="213169560" /><trip id="delivery141" type="delivery" depart="140" from="-422015088#5" to="-422015088#5" /><trip id="delivery142" type="delivery" depart="141" from="-421446047#1" to="-421446047#1" /><trip id="delivery143" type="delivery" depart="142" from="-1070247724#1" to="-1070247724#1" /><trip id="delivery144" type="delivery" depart="143" from="421935738#14" to="421935738#14" /><trip id="delivery145" type="delivery" depart="144" from="-1073854902#1" to="-1073854902#1" /><trip id="delivery146" type="delivery" depart="145" from="-1068098979" to="-1068098979" /><trip id="delivery147" type="delivery" depart="146" from="-172522904#1" to="-172522904#1" /><trip id="delivery148" type="delivery" depart="147" from="-172507642#2" to="-172507642#2" /><trip id="delivery149" type="delivery" depart="148" from="172377257#10" to="172377257#10" /><trip id="delivery150" type="delivery" depart="149" from="1069506325" to="1069506325" /><trip id="delivery151" type="delivery" depart="150" from="-421738581#10" to="-421738581#10" /><trip id="delivery152" type="delivery" depart="151" from="-172671877#0" to="-172671877#0" /><trip id="delivery153" type="delivery" depart="152" from="-172387764#0" to="-172387764#0" /><trip id="delivery154" type="delivery" depart="153" from="-421285553#5" to="-421285553#5" /><trip id="delivery155" type="delivery" depart="154" from="1241857715" to="1241857715" /><trip id="delivery156" type="delivery" depart="155" from="-172771600" to="-172771600" /><trip id="delivery157" type="delivery" depart="156" from="421756626#1" to="421756626#1" /><trip id="delivery158" type="delivery" depart="157" from="-400928133#9" to="-400928133#9" /><trip id="delivery159" type="delivery" depart="158" from="-421448384#15" to="-421448384#15" /><trip id="delivery160" type="delivery" depart="159" from="1094199602" to="1094199602" /><trip id="delivery161" type="delivery" depart="160" from="-188616215#2" to="-188616215#2" /><trip id="delivery162" type="delivery" depart="161" from="143183252#1" to="143183252#1" /><trip id="delivery163" type="delivery" depart="162" from="-172390022" to="-172390022" /><trip id="delivery164" type="delivery" depart="163" from="-421729915" to="-421729915" /><trip id="delivery165" type="delivery" depart="164" from="-1069241671#0" to="-1069241671#0" /><trip id="delivery166" type="delivery" depart="165" from="1240074389#4" to="1240074389#4" /><trip id="delivery167" type="delivery" depart="166" from="-1069560043" to="-1069560043" /><trip id="delivery168" type="delivery" depart="167" from="-188610264#0" to="-188610264#0" /><trip id="delivery169" type="delivery" depart="168" from="-143683397#9" to="-143683397#9" /><trip id="delivery170" type="delivery" depart="169" from="421445672#9" to="421445672#9" /><trip id="delivery171" type="delivery" depart="170" from="-172314890#1" to="-172314890#1" /><trip id="delivery172" type="delivery" depart="171" from="1107738547#0" to="1107738547#0" /><trip id="delivery173" type="delivery" depart="172" from="-172512015#6" to="-172512015#6" /><trip id="delivery174" type="delivery" depart="173" from="1054721698#0" to="1054721698#0" /><trip id="delivery175" type="delivery" depart="174" from="423405622#0" to="423405622#0" /><trip id="delivery176" type="delivery" depart="175" from="-172498202#1" to="-172498202#1" /><trip id="delivery177" type="delivery" depart="176" from="358617322#0" to="358617322#0" /><trip id="delivery178" type="delivery" depart="177" from="1081153334" to="1081153334" /><trip id="delivery179" type="delivery" depart="178" from="-374518135#1" to="-374518135#1" /><trip id="delivery180" type="delivery" depart="179" from="-144134029#7" to="-144134029#7" /><trip id="delivery181" type="delivery" depart="180" from="-358617182#24" to="-358617182#24" /><trip id="delivery182" type="delivery" depart="181" from="421435054#2" to="421435054#2" /><trip id="delivery183" type="delivery" depart="182" from="-421466340#0" to="-421466340#0" /><trip id="delivery184" type="delivery" depart="183" from="1068453479#0" to="1068453479#0" /><trip id="delivery185" type="delivery" depart="184" from="421756561#18" to="421756561#18" /><trip id="delivery186" type="delivery" depart="185" from="-188605050#1" to="-188605050#1" /><trip id="delivery187" type="delivery" depart="186" from="-172656619" to="-172656619" /><trip id="delivery188" type="delivery" depart="187" from="-372578954#1" to="-372578954#1" /><trip id="delivery189" type="delivery" depart="188" from="-421726426#1" to="-421726426#1" /><trip id="delivery190" type="delivery" depart="189" from="403511257" to="403511257" /><trip id="delivery191" type="delivery" depart="190" from="213169373" to="213169373" /><trip id="delivery192" type="delivery" depart="191" from="1072212726#5" to="1072212726#5" /><trip id="delivery193" type="delivery" depart="192" from="1075943747#3" to="1075943747#3" /><trip id="delivery194" type="delivery" depart="193" from="423618566#1" to="423618566#1" /><trip id="delivery195" type="delivery" depart="194" from="421738206#0" to="421738206#0" /><trip id="delivery196" type="delivery" depart="195" from="-1241855148#7" to="-1241855148#7" /><trip id="delivery197" type="delivery" depart="196" from="-1049236669" to="-1049236669" /><trip id="delivery198" type="delivery" depart="197" from="421725188#5" to="421725188#5" /><trip id="delivery199" type="delivery" depart="198" from="-1068220044#1" to="-1068220044#1" /><trip id="delivery200" type="delivery" depart="199" from="442864304#2" to="442864304#2" /></routes>