<?xml version="1.0" encoding="UTF-8"?>

<!-- generated on 2025-04-21 04:59:13 by Eclipse SUMO duarouter Version 1.22.0
<duarouterConfiguration xmlns:xsi="http://www.w3.org/2001/XMLSchema-instance" xsi:noNamespaceSchemaLocation="http://sumo.dlr.de/xsd/duarouterConfiguration.xsd">

    <input>
        <net-file value="faridabad.net.xml"/>
        <additional-files value="vehicles.add.xml"/>
        <route-files value="Delivery/delivery_points.trips.xml"/>
    </input>

    <output>
        <output-file value="Delivery/delivery_points.rou.xml"/>
    </output>

</duarouterConfiguration>
-->

<routes xmlns:xsi="http://www.w3.org/2001/XMLSchema-instance" xsi:noNamespaceSchemaLocation="http://sumo.dlr.de/xsd/routes_file.xsd">
    <vType id="delivery" length="5.00" minGap="1.50" maxSpeed="25.00" vClass="delivery" guiShape="delivery" color="red" accel="1.2" decel="4.5" sigma="0.5"/>
    <vehicle id="delivery1" type="delivery" depart="0.00">
        <route edges="1250238604#2"/>
    </vehicle>
    <vehicle id="delivery2" type="delivery" depart="1.00">
        <route edges="1069175684#2"/>
    </vehicle>
    <vehicle id="delivery3" type="delivery" depart="2.00">
        <route edges="423069929#2"/>
    </vehicle>
    <vehicle id="delivery4" type="delivery" depart="3.00">
        <route edges="1068453640#1"/>
    </vehicle>
    <vehicle id="delivery5" type="delivery" depart="4.00">
        <route edges="172498097"/>
    </vehicle>
    <vehicle id="delivery6" type="delivery" depart="5.00">
        <route edges="1076564306#2"/>
    </vehicle>
    <vehicle id="delivery7" type="delivery" depart="6.00">
        <route edges="1069840061#0"/>
    </vehicle>
    <vehicle id="delivery8" type="delivery" depart="7.00">
        <route edges="172671774#1"/>
    </vehicle>
    <vehicle id="delivery9" type="delivery" depart="8.00">
        <route edges="-1069868748"/>
    </vehicle>
    <vehicle id="delivery10" type="delivery" depart="9.00">
        <route edges="172573270#28"/>
    </vehicle>
    <vehicle id="delivery11" type="delivery" depart="10.00">
        <route edges="1193701478"/>
    </vehicle>
    <vehicle id="delivery12" type="delivery" depart="11.00">
        <route edges="-421435477#3"/>
    </vehicle>
    <vehicle id="delivery13" type="delivery" depart="12.00">
        <route edges="-172320305#6"/>
    </vehicle>
    <vehicle id="delivery14" type="delivery" depart="13.00">
        <route edges="1069838369"/>
    </vehicle>
    <vehicle id="delivery15" type="delivery" depart="14.00">
        <route edges="-422134501#0"/>
    </vehicle>
    <vehicle id="delivery16" type="delivery" depart="15.00">
        <route edges="-172512007#4"/>
    </vehicle>
    <vehicle id="delivery17" type="delivery" depart="16.00">
        <route edges="-358626950#20"/>
    </vehicle>
    <vehicle id="delivery18" type="delivery" depart="17.00">
        <route edges="-1072209368"/>
    </vehicle>
    <vehicle id="delivery19" type="delivery" depart="18.00">
        <route edges="-172405635#7"/>
    </vehicle>
    <vehicle id="delivery20" type="delivery" depart="19.00">
        <route edges="421262937#9"/>
    </vehicle>
    <vehicle id="delivery21" type="delivery" depart="20.00">
        <route edges="172671822#1"/>
    </vehicle>
    <vehicle id="delivery22" type="delivery" depart="21.00">
        <route edges="-423115888#7"/>
    </vehicle>
    <vehicle id="delivery23" type="delivery" depart="22.00">
        <route edges="1069471946"/>
    </vehicle>
    <vehicle id="delivery24" type="delivery" depart="23.00">
        <route edges="358617187#11"/>
    </vehicle>
    <vehicle id="delivery25" type="delivery" depart="24.00">
        <route edges="1107635400#13"/>
    </vehicle>
    <vehicle id="delivery26" type="delivery" depart="25.00">
        <route edges="-1049236648"/>
    </vehicle>
    <vehicle id="delivery27" type="delivery" depart="26.00">
        <route edges="-1069589246#1"/>
    </vehicle>
    <vehicle id="delivery28" type="delivery" depart="27.00">
        <route edges="-1241924076"/>
    </vehicle>
    <vehicle id="delivery29" type="delivery" depart="28.00">
        <route edges="-1069577777#0"/>
    </vehicle>
    <vehicle id="delivery30" type="delivery" depart="29.00">
        <route edges="-1046138350#1"/>
    </vehicle>
    <vehicle id="delivery31" type="delivery" depart="30.00">
        <route edges="-172387762#3"/>
    </vehicle>
    <vehicle id="delivery32" type="delivery" depart="31.00">
        <route edges="172544807#5"/>
    </vehicle>
    <vehicle id="delivery33" type="delivery" depart="32.00">
        <route edges="-143948765#3"/>
    </vehicle>
    <vehicle id="delivery34" type="delivery" depart="33.00">
        <route edges="172492362#6"/>
    </vehicle>
    <vehicle id="delivery35" type="delivery" depart="34.00">
        <route edges="1069141909"/>
    </vehicle>
    <vehicle id="delivery36" type="delivery" depart="35.00">
        <route edges="1070274192#0"/>
    </vehicle>
    <vehicle id="delivery37" type="delivery" depart="36.00">
        <route edges="-1075249038#0"/>
    </vehicle>
    <vehicle id="delivery38" type="delivery" depart="37.00">
        <route edges="1069506316#0"/>
    </vehicle>
    <vehicle id="delivery39" type="delivery" depart="38.00">
        <route edges="-422771376"/>
    </vehicle>
    <vehicle id="delivery40" type="delivery" depart="39.00">
        <route edges="422013375#3"/>
    </vehicle>
    <vehicle id="delivery41" type="delivery" depart="40.00">
        <route edges="188600284#0"/>
    </vehicle>
    <vehicle id="delivery42" type="delivery" depart="41.00">
        <route edges="-172714182#18"/>
    </vehicle>
    <vehicle id="delivery43" type="delivery" depart="42.00">
        <route edges="1075054058#0"/>
    </vehicle>
    <vehicle id="delivery44" type="delivery" depart="43.00">
        <route edges="421985955"/>
    </vehicle>
    <vehicle id="delivery45" type="delivery" depart="44.00">
        <route edges="423069926#1"/>
    </vehicle>
    <vehicle id="delivery46" type="delivery" depart="45.00">
        <route edges="1067130509"/>
    </vehicle>
    <vehicle id="delivery47" type="delivery" depart="46.00">
        <route edges="172344563#1"/>
    </vehicle>
    <vehicle id="delivery48" type="delivery" depart="47.00">
        <route edges="421990767#0"/>
    </vehicle>
    <vehicle id="delivery49" type="delivery" depart="48.00">
        <route edges="-172544915#2"/>
    </vehicle>
    <vehicle id="delivery50" type="delivery" depart="49.00">
        <route edges="-1069506312#3"/>
    </vehicle>
    <vehicle id="delivery51" type="delivery" depart="50.00">
        <route edges="1069476510"/>
    </vehicle>
    <vehicle id="delivery52" type="delivery" depart="51.00">
        <route edges="-421982689#0"/>
    </vehicle>
    <vehicle id="delivery53" type="delivery" depart="52.00">
        <route edges="-610665204#22"/>
    </vehicle>
    <vehicle id="delivery54" type="delivery" depart="53.00">
        <route edges="705443881#2"/>
    </vehicle>
    <vehicle id="delivery55" type="delivery" depart="54.00">
        <route edges="-188605030#0"/>
    </vehicle>
    <vehicle id="delivery56" type="delivery" depart="55.00">
        <route edges="172671655"/>
    </vehicle>
    <vehicle id="delivery57" type="delivery" depart="56.00">
        <route edges="1069506695"/>
    </vehicle>
    <vehicle id="delivery58" type="delivery" depart="57.00">
        <route edges="-1069867754#0"/>
    </vehicle>
    <vehicle id="delivery59" type="delivery" depart="58.00">
        <route edges="1295220267"/>
    </vehicle>
    <vehicle id="delivery60" type="delivery" depart="59.00">
        <route edges="-1241875639"/>
    </vehicle>
    <vehicle id="delivery61" type="delivery" depart="60.00">
        <route edges="358614347#4"/>
    </vehicle>
    <vehicle id="delivery62" type="delivery" depart="61.00">
        <route edges="443224532#6"/>
    </vehicle>
    <vehicle id="delivery63" type="delivery" depart="62.00">
        <route edges="1068431581#14"/>
    </vehicle>
    <vehicle id="delivery64" type="delivery" depart="63.00">
        <route edges="-172511977#2"/>
    </vehicle>
    <vehicle id="delivery65" type="delivery" depart="64.00">
        <route edges="-421435472"/>
    </vehicle>
    <vehicle id="delivery66" type="delivery" depart="65.00">
        <route edges="-421799060#9"/>
    </vehicle>
    <vehicle id="delivery67" type="delivery" depart="66.00">
        <route edges="-172507687#4"/>
    </vehicle>
    <vehicle id="delivery68" type="delivery" depart="67.00">
        <route edges="1075324121#1"/>
    </vehicle>
    <vehicle id="delivery69" type="delivery" depart="68.00">
        <route edges="1073880466#1"/>
    </vehicle>
    <vehicle id="delivery70" type="delivery" depart="69.00">
        <route edges="1071877829"/>
    </vehicle>
    <vehicle id="delivery71" type="delivery" depart="70.00">
        <route edges="560529322#0"/>
    </vehicle>
    <vehicle id="delivery72" type="delivery" depart="71.00">
        <route edges="-1069821782#3"/>
    </vehicle>
    <vehicle id="delivery73" type="delivery" depart="72.00">
        <route edges="-1067781261"/>
    </vehicle>
    <vehicle id="delivery74" type="delivery" depart="73.00">
        <route edges="-1214257019#1"/>
    </vehicle>
    <vehicle id="delivery75" type="delivery" depart="74.00">
        <route edges="1069868734"/>
    </vehicle>
    <vehicle id="delivery76" type="delivery" depart="75.00">
        <route edges="1066052239#1"/>
    </vehicle>
    <vehicle id="delivery77" type="delivery" depart="76.00">
        <route edges="1075360503"/>
    </vehicle>
    <vehicle id="delivery78" type="delivery" depart="77.00">
        <route edges="-1074443483#1"/>
    </vehicle>
    <vehicle id="delivery79" type="delivery" depart="78.00">
        <route edges="-1069178778"/>
    </vehicle>
    <vehicle id="delivery80" type="delivery" depart="79.00">
        <route edges="-1069175842#0"/>
    </vehicle>
    <vehicle id="delivery81" type="delivery" depart="80.00">
        <route edges="1067127868#2"/>
    </vehicle>
    <vehicle id="delivery82" type="delivery" depart="81.00">
        <route edges="1240684156#1"/>
    </vehicle>
    <vehicle id="delivery83" type="delivery" depart="82.00">
        <route edges="-1069150699"/>
    </vehicle>
    <vehicle id="delivery84" type="delivery" depart="83.00">
        <route edges="-172574043"/>
    </vehicle>
    <vehicle id="delivery85" type="delivery" depart="84.00">
        <route edges="1187232893"/>
    </vehicle>
    <vehicle id="delivery86" type="delivery" depart="85.00">
        <route edges="172573301#5"/>
    </vehicle>
    <vehicle id="delivery87" type="delivery" depart="86.00">
        <route edges="423281395#0"/>
    </vehicle>
    <vehicle id="delivery88" type="delivery" depart="87.00">
        <route edges="188603108#4"/>
    </vehicle>
    <vehicle id="delivery89" type="delivery" depart="88.00">
        <route edges="1069233621#0"/>
    </vehicle>
    <vehicle id="delivery90" type="delivery" depart="89.00">
        <route edges="172573457"/>
    </vehicle>
    <vehicle id="delivery91" type="delivery" depart="90.00">
        <route edges="-372578921#5"/>
    </vehicle>
    <vehicle id="delivery92" type="delivery" depart="91.00">
        <route edges="1070276752#1"/>
    </vehicle>
    <vehicle id="delivery93" type="delivery" depart="92.00">
        <route edges="-1069205948#0"/>
    </vehicle>
    <vehicle id="delivery94" type="delivery" depart="93.00">
        <route edges="-1072191791"/>
    </vehicle>
    <vehicle id="delivery95" type="delivery" depart="94.00">
        <route edges="423104985"/>
    </vehicle>
    <vehicle id="delivery96" type="delivery" depart="95.00">
        <route edges="422621691#0"/>
    </vehicle>
    <vehicle id="delivery97" type="delivery" depart="96.00">
        <route edges="-421737094#0"/>
    </vehicle>
    <vehicle id="delivery98" type="delivery" depart="97.00">
        <route edges="-421253503#2"/>
    </vehicle>
    <vehicle id="delivery99" type="delivery" depart="98.00">
        <route edges="1074129168#1"/>
    </vehicle>
    <vehicle id="delivery100" type="delivery" depart="99.00">
        <route edges="-1075951928#4"/>
    </vehicle>
    <vehicle id="delivery101" type="delivery" depart="100.00">
        <route edges="1049905484#0"/>
    </vehicle>
    <vehicle id="delivery102" type="delivery" depart="101.00">
        <route edges="372578927#1"/>
    </vehicle>
    <vehicle id="delivery103" type="delivery" depart="102.00">
        <route edges="1074140034#1"/>
    </vehicle>
    <vehicle id="delivery104" type="delivery" depart="103.00">
        <route edges="610660574#46"/>
    </vehicle>
    <vehicle id="delivery105" type="delivery" depart="104.00">
        <route edges="1094199601#0"/>
    </vehicle>
    <vehicle id="delivery106" type="delivery" depart="105.00">
        <route edges="1071914474"/>
    </vehicle>
    <vehicle id="delivery107" type="delivery" depart="106.00">
        <route edges="172384855#3"/>
    </vehicle>
    <vehicle id="delivery108" type="delivery" depart="107.00">
        <route edges="1074378388#5"/>
    </vehicle>
    <vehicle id="delivery109" type="delivery" depart="108.00">
        <route edges="-1075954641#1"/>
    </vehicle>
    <vehicle id="delivery110" type="delivery" depart="109.00">
        <route edges="172586594#0"/>
    </vehicle>
    <vehicle id="delivery111" type="delivery" depart="110.00">
        <route edges="-421729936#0"/>
    </vehicle>
    <vehicle id="delivery112" type="delivery" depart="111.00">
        <route edges="-1067844906"/>
    </vehicle>
    <vehicle id="delivery113" type="delivery" depart="112.00">
        <route edges="421800634#1"/>
    </vehicle>
    <vehicle id="delivery114" type="delivery" depart="113.00">
        <route edges="374518182#5"/>
    </vehicle>
    <vehicle id="delivery115" type="delivery" depart="114.00">
        <route edges="172405640"/>
    </vehicle>
    <vehicle id="delivery116" type="delivery" depart="115.00">
        <route edges="1069477672#2"/>
    </vehicle>
    <vehicle id="delivery117" type="delivery" depart="116.00">
        <route edges="-1069477638#0"/>
    </vehicle>
    <vehicle id="delivery118" type="delivery" depart="117.00">
        <route edges="-1069188909#0"/>
    </vehicle>
    <vehicle id="delivery119" type="delivery" depart="118.00">
        <route edges="172344581#0"/>
    </vehicle>
    <vehicle id="delivery120" type="delivery" depart="119.00">
        <route edges="776290186#6"/>
    </vehicle>
    <vehicle id="delivery121" type="delivery" depart="120.00">
        <route edges="421730040#0"/>
    </vehicle>
    <vehicle id="delivery122" type="delivery" depart="121.00">
        <route edges="1061072247#1"/>
    </vehicle>
    <vehicle id="delivery123" type="delivery" depart="122.00">
        <route edges="172671788#0"/>
    </vehicle>
    <vehicle id="delivery124" type="delivery" depart="123.00">
        <route edges="-421466353#4"/>
    </vehicle>
    <vehicle id="delivery125" type="delivery" depart="124.00">
        <route edges="1075042279#1"/>
    </vehicle>
    <vehicle id="delivery126" type="delivery" depart="125.00">
        <route edges="423270568#9"/>
    </vehicle>
    <vehicle id="delivery127" type="delivery" depart="126.00">
        <route edges="-1070234686"/>
    </vehicle>
    <vehicle id="delivery128" type="delivery" depart="127.00">
        <route edges="-421740787#1"/>
    </vehicle>
    <vehicle id="delivery129" type="delivery" depart="128.00">
        <route edges="-172714200#2"/>
    </vehicle>
    <vehicle id="delivery130" type="delivery" depart="129.00">
        <route edges="421972372"/>
    </vehicle>
    <vehicle id="delivery131" type="delivery" depart="130.00">
        <route edges="-191207550#16"/>
    </vehicle>
    <vehicle id="delivery132" type="delivery" depart="131.00">
        <route edges="-422133569#2"/>
    </vehicle>
    <vehicle id="delivery133" type="delivery" depart="132.00">
        <route edges="-1075049475#3"/>
    </vehicle>
    <vehicle id="delivery134" type="delivery" depart="133.00">
        <route edges="1067498379#3"/>
    </vehicle>
    <vehicle id="delivery135" type="delivery" depart="134.00">
        <route edges="-143683396#1"/>
    </vehicle>
    <vehicle id="delivery136" type="delivery" depart="135.00">
        <route edges="-1068400937#2"/>
    </vehicle>
    <vehicle id="delivery137" type="delivery" depart="136.00">
        <route edges="172348362#1"/>
    </vehicle>
    <vehicle id="delivery138" type="delivery" depart="137.00">
        <route edges="-425427947#2"/>
    </vehicle>
    <vehicle id="delivery139" type="delivery" depart="138.00">
        <route edges="-1070497276"/>
    </vehicle>
    <vehicle id="delivery140" type="delivery" depart="139.00">
        <route edges="213169560"/>
    </vehicle>
    <vehicle id="delivery141" type="delivery" depart="140.00">
        <route edges="-422015088#5"/>
    </vehicle>
    <vehicle id="delivery142" type="delivery" depart="141.00">
        <route edges="-421446047#1"/>
    </vehicle>
    <vehicle id="delivery143" type="delivery" depart="142.00">
        <route edges="-1070247724#1"/>
    </vehicle>
    <vehicle id="delivery144" type="delivery" depart="143.00">
        <route edges="421935738#14"/>
    </vehicle>
    <vehicle id="delivery145" type="delivery" depart="144.00">
        <route edges="-1073854902#1"/>
    </vehicle>
    <vehicle id="delivery146" type="delivery" depart="145.00">
        <route edges="-1068098979"/>
    </vehicle>
    <vehicle id="delivery147" type="delivery" depart="146.00">
        <route edges="-172522904#1"/>
    </vehicle>
    <vehicle id="delivery148" type="delivery" depart="147.00">
        <route edges="-172507642#2"/>
    </vehicle>
    <vehicle id="delivery149" type="delivery" depart="148.00">
        <route edges="172377257#10"/>
    </vehicle>
    <vehicle id="delivery150" type="delivery" depart="149.00">
        <route edges="1069506325"/>
    </vehicle>
    <vehicle id="delivery151" type="delivery" depart="150.00">
        <route edges="-421738581#10"/>
    </vehicle>
    <vehicle id="delivery152" type="delivery" depart="151.00">
        <route edges="-172671877#0"/>
    </vehicle>
    <vehicle id="delivery153" type="delivery" depart="152.00">
        <route edges="-172387764#0"/>
    </vehicle>
    <vehicle id="delivery154" type="delivery" depart="153.00">
        <route edges="-421285553#5"/>
    </vehicle>
    <vehicle id="delivery155" type="delivery" depart="154.00">
        <route edges="1241857715"/>
    </vehicle>
    <vehicle id="delivery156" type="delivery" depart="155.00">
        <route edges="-172771600"/>
    </vehicle>
    <vehicle id="delivery157" type="delivery" depart="156.00">
        <route edges="421756626#1"/>
    </vehicle>
    <vehicle id="delivery158" type="delivery" depart="157.00">
        <route edges="-400928133#9"/>
    </vehicle>
    <vehicle id="delivery159" type="delivery" depart="158.00">
        <route edges="-421448384#15"/>
    </vehicle>
    <vehicle id="delivery160" type="delivery" depart="159.00">
        <route edges="1094199602"/>
    </vehicle>
    <vehicle id="delivery161" type="delivery" depart="160.00">
        <route edges="-188616215#2"/>
    </vehicle>
    <vehicle id="delivery162" type="delivery" depart="161.00">
        <route edges="143183252#1"/>
    </vehicle>
    <vehicle id="delivery163" type="delivery" depart="162.00">
        <route edges="-172390022"/>
    </vehicle>
    <vehicle id="delivery164" type="delivery" depart="163.00">
        <route edges="-421729915"/>
    </vehicle>
    <vehicle id="delivery165" type="delivery" depart="164.00">
        <route edges="-1069241671#0"/>
    </vehicle>
    <vehicle id="delivery166" type="delivery" depart="165.00">
        <route edges="1240074389#4"/>
    </vehicle>
    <vehicle id="delivery167" type="delivery" depart="166.00">
        <route edges="-1069560043"/>
    </vehicle>
    <vehicle id="delivery168" type="delivery" depart="167.00">
        <route edges="-188610264#0"/>
    </vehicle>
    <vehicle id="delivery169" type="delivery" depart="168.00">
        <route edges="-143683397#9"/>
    </vehicle>
    <vehicle id="delivery170" type="delivery" depart="169.00">
        <route edges="421445672#9"/>
    </vehicle>
    <vehicle id="delivery171" type="delivery" depart="170.00">
        <route edges="-172314890#1"/>
    </vehicle>
    <vehicle id="delivery172" type="delivery" depart="171.00">
        <route edges="1107738547#0"/>
    </vehicle>
    <vehicle id="delivery173" type="delivery" depart="172.00">
        <route edges="-172512015#6"/>
    </vehicle>
    <vehicle id="delivery174" type="delivery" depart="173.00">
        <route edges="1054721698#0"/>
    </vehicle>
    <vehicle id="delivery175" type="delivery" depart="174.00">
        <route edges="423405622#0"/>
    </vehicle>
    <vehicle id="delivery176" type="delivery" depart="175.00">
        <route edges="-172498202#1"/>
    </vehicle>
    <vehicle id="delivery177" type="delivery" depart="176.00">
        <route edges="358617322#0"/>
    </vehicle>
    <vehicle id="delivery178" type="delivery" depart="177.00">
        <route edges="1081153334"/>
    </vehicle>
    <vehicle id="delivery179" type="delivery" depart="178.00">
        <route edges="-374518135#1"/>
    </vehicle>
    <vehicle id="delivery180" type="delivery" depart="179.00">
        <route edges="-144134029#7"/>
    </vehicle>
    <vehicle id="delivery181" type="delivery" depart="180.00">
        <route edges="-358617182#24"/>
    </vehicle>
    <vehicle id="delivery182" type="delivery" depart="181.00">
        <route edges="421435054#2"/>
    </vehicle>
    <vehicle id="delivery183" type="delivery" depart="182.00">
        <route edges="-421466340#0"/>
    </vehicle>
    <vehicle id="delivery184" type="delivery" depart="183.00">
        <route edges="1068453479#0"/>
    </vehicle>
    <vehicle id="delivery185" type="delivery" depart="184.00">
        <route edges="421756561#18"/>
    </vehicle>
    <vehicle id="delivery186" type="delivery" depart="185.00">
        <route edges="-188605050#1"/>
    </vehicle>
    <vehicle id="delivery187" type="delivery" depart="186.00">
        <route edges="-172656619"/>
    </vehicle>
    <vehicle id="delivery188" type="delivery" depart="187.00">
        <route edges="-372578954#1"/>
    </vehicle>
    <vehicle id="delivery189" type="delivery" depart="188.00">
        <route edges="-421726426#1"/>
    </vehicle>
    <vehicle id="delivery190" type="delivery" depart="189.00">
        <route edges="403511257"/>
    </vehicle>
    <vehicle id="delivery191" type="delivery" depart="190.00">
        <route edges="213169373"/>
    </vehicle>
    <vehicle id="delivery192" type="delivery" depart="191.00">
        <route edges="1072212726#5"/>
    </vehicle>
    <vehicle id="delivery193" type="delivery" depart="192.00">
        <route edges="1075943747#3"/>
    </vehicle>
    <vehicle id="delivery194" type="delivery" depart="193.00">
        <route edges="423618566#1"/>
    </vehicle>
    <vehicle id="delivery195" type="delivery" depart="194.00">
        <route edges="421738206#0"/>
    </vehicle>
    <vehicle id="delivery196" type="delivery" depart="195.00">
        <route edges="-1241855148#7"/>
    </vehicle>
    <vehicle id="delivery197" type="delivery" depart="196.00">
        <route edges="-1049236669"/>
    </vehicle>
    <vehicle id="delivery198" type="delivery" depart="197.00">
        <route edges="421725188#5"/>
    </vehicle>
    <vehicle id="delivery199" type="delivery" depart="198.00">
        <route edges="-1068220044#1"/>
    </vehicle>
    <vehicle id="delivery200" type="delivery" depart="199.00">
        <route edges="442864304#2"/>
    </vehicle>
</routes>
